/*---------------------------------------------------------------------------*\
| =========                 |                                                 |
| \\      /  F ield         | OpenFOAM: The Open Source CFD Toolbox           |
|  \\    /   O peration     | Version:  2412                                  |
|   \\  /    A nd           | Website:  www.openfoam.com                      |
|    \\/     M anipulation  |                                                 |
\*---------------------------------------------------------------------------*/
Build  : _8dbc61e11c-20241220 OPENFOAM=2412 version=v2412
Arch   : "LSB;label=32;scalar=64"
Exec   : cardiacFoam -parallel
Date   : Mar 19 2026
Time   : 20:07:17
Host   : macbook
PID    : 87290
I/O    : uncollated
Case   : /Users/simaocastro/cardiacFoamv2/tutorials/manufacturedFDA
nProcs : 6
Hosts  :
(
    (macbook 6)
)
Pstream initialized with:
    floatTransfer      : false
    maxCommsSize       : 0
    nProcsSimpleSum    : 0
    nonBlockingExchange: 0 (tuning: 0)
    exchange algorithm : 0
    commsType          : nonBlocking
    polling iterations : 0
trapFpe: Floating point exception trapping enabled (FOAM_SIGFPE).
fileModificationChecking : Monitoring run-time modified files using timeStampMaster (fileModificationSkew 5, maxFileModificationPolls 20)
allowSystemOperations : Allowing user-supplied system call operations

// * * * * * * * * * * * * * * * * * * * * * * * * * * * * * * * * * * * * * //
Create time

Selecting physicsModel electroModel

Selecting electroModel monoDomainElectro

conductivity not found on disk, using value from "/Users/simaocastro/cardiacFoamv2/tutorials/manufacturedFDA/processor0/../constant/electroProperties/monoDomainElectroCoeffs"

conductivity tensor (cell 0): (0.111453 0 0 0 0.121585 0 0 0 0.0303964)
--> FOAM Warning : 
    From Foam::electroModels::monoDomainElectro::monoDomainElectro(const word &, Time &, const word &)
    in file monoDomainElectro/monoDomainElectro.C at line 322
    Stimulus box index 0 does not contain any mesh cells.
---------------------------------------------
Stimulus source dictionary: monodomainStimulus
3D mesh detected — stimulus parameters:
Stimulus boxes: 1
Number of cells in stimulus region: 0
Stimulus duration list: 1(0)
Stimulus start time(s): 1(0)
Stimulus intensity list: 1(0)
---------------------------------------------
Surface-to-volume ratio chi = chi [0 -1 0 0 0 0 0] 3
Membrane capacitance Cm = Cm [-1 -4 4 0 0 2 0] 2

Using pre/post processor tmanufacturedFDA for ionic model tmanufacturedFDA.
Running preProcess with fields 3(u1 u2 u3).
Selecting ecgModel pseudoECGElectro
ECG conductivity source: monodomain conductivity field

ECG electrodes (5):
  E1  @  (-0.5 0.5 0.5)
  E2  @  (1.5 0.5 0.5)
  E3  @  (1.2 0.23 0.61)
  E4  @  (1.35 0.74 0.28)
  E5  @  (1.55 0.41 0.83)

Enabled manufactured pseudo-ECG references: qRef=96, qChecks=(6 12 24 48), dimension=3.
Time = 0.000140174

Solving the mono-domain equation for Vm using an implicit approach
DEBUG cell=0 t=0→0.000140174 step=0.000140174 V=-0.295721 u1=0.704279 u2=1 u3=0 Iion=0
Selecting ODE solver RKF45
DEBUG cell=0 t=0→0.000140174 step=0.00126157 V=-0.295721 u1=0.704398 u2=0.99986 u3=0 Iion=1.14341

PIMPLE: no residual control data found. Calculations will employ 2 corrector loops

PIMPLE: iteration 1
DICPCG:  Solving for Vm, Initial residual = 3.50972e-05, Final residual = 4.47133e-16, No Iterations 5
PIMPLE: iteration 2
DICPCG:  Solving for Vm, Initial residual = 4.78257e-16, Final residual = 4.78257e-16, No Iterations 0
ExecutionTime = 0.24 s  ClockTime = 1 s

Time = 0.000280348

DEBUG cell=0 t=0.000140174→0.000280348 step=0.000140174 V=-0.295742 u1=0.704398 u2=0.99986 u3=0 Iion=1.14341
DEBUG cell=0 t=0.000140174→0.000280348 step=0.00126157 V=-0.295742 u1=0.704518 u2=0.99972 u3=0 Iion=1.14345
PIMPLE: iteration 1
DICPCG:  Solving for Vm, Initial residual = 3.50931e-05, Final residual = 6.26827e-17, No Iterations 5
PIMPLE: iteration 2
DICPCG:  Solving for Vm, Initial residual = 1.28398e-16, Final residual = 1.28398e-16, No Iterations 0
ExecutionTime = 0.32 s  ClockTime = 1 s

Time = 0.000420522

DEBUG cell=0 t=0.000280348→0.000420522 step=0.000140174 V=-0.295763 u1=0.704518 u2=0.99972 u3=0 Iion=1.14345
DEBUG cell=0 t=0.000280348→0.000420522 step=0.00126157 V=-0.295763 u1=0.704637 u2=0.99958 u3=0 Iion=1.14349
PIMPLE: iteration 1
DICPCG:  Solving for Vm, Initial residual = 3.50885e-05, Final residual = 6.26744e-17, No Iterations 5
PIMPLE: iteration 2
DICPCG:  Solving for Vm, Initial residual = 1.28549e-16, Final residual = 1.28549e-16, No Iterations 0
ExecutionTime = 0.39 s  ClockTime = 1 s

Time = 0.000560696

DEBUG cell=0 t=0.000420522→0.000560696 step=0.000140174 V=-0.295783 u1=0.704637 u2=0.99958 u3=0 Iion=1.14349
DEBUG cell=0 t=0.000420522→0.000560696 step=0.00126157 V=-0.295783 u1=0.704757 u2=0.99944 u3=0 Iion=1.14352
PIMPLE: iteration 1
DICPCG:  Solving for Vm, Initial residual = 3.50837e-05, Final residual = 6.26658e-17, No Iterations 5
PIMPLE: iteration 2
DICPCG:  Solving for Vm, Initial residual = 1.28543e-16, Final residual = 1.28543e-16, No Iterations 0
ExecutionTime = 0.46 s  ClockTime = 1 s

Time = 0.00070087

DEBUG cell=0 t=0.000560696→0.00070087 step=0.000140174 V=-0.295804 u1=0.704757 u2=0.99944 u3=0 Iion=1.14352
DEBUG cell=0 t=0.000560696→0.00070087 step=0.00126157 V=-0.295804 u1=0.704876 u2=0.9993 u3=0 Iion=1.14356
PIMPLE: iteration 1
DICPCG:  Solving for Vm, Initial residual = 3.50788e-05, Final residual = 6.26571e-17, No Iterations 5
PIMPLE: iteration 2
DICPCG:  Solving for Vm, Initial residual = 1.28091e-16, Final residual = 1.28091e-16, No Iterations 0
ExecutionTime = 0.53 s  ClockTime = 1 s

Time = 0.000841044

DEBUG cell=0 t=0.00070087→0.000841044 step=0.000140174 V=-0.295825 u1=0.704876 u2=0.9993 u3=0 Iion=1.14356
DEBUG cell=0 t=0.00070087→0.000841044 step=0.00126157 V=-0.295825 u1=0.704996 u2=0.99916 u3=0 Iion=1.1436
PIMPLE: iteration 1
DICPCG:  Solving for Vm, Initial residual = 3.50739e-05, Final residual = 6.26484e-17, No Iterations 5
PIMPLE: iteration 2
DICPCG:  Solving for Vm, Initial residual = 1.28273e-16, Final residual = 1.28273e-16, No Iterations 0
ExecutionTime = 0.6 s  ClockTime = 1 s

Time = 0.000981218

DEBUG cell=0 t=0.000841044→0.000981218 step=0.000140174 V=-0.295846 u1=0.704996 u2=0.99916 u3=0 Iion=1.1436
DEBUG cell=0 t=0.000841044→0.000981218 step=0.00126157 V=-0.295846 u1=0.705115 u2=0.99902 u3=0 Iion=1.14364
PIMPLE: iteration 1
DICPCG:  Solving for Vm, Initial residual = 3.5069e-05, Final residual = 6.26396e-17, No Iterations 5
PIMPLE: iteration 2
DICPCG:  Solving for Vm, Initial residual = 1.2827e-16, Final residual = 1.2827e-16, No Iterations 0
ExecutionTime = 0.67 s  ClockTime = 1 s

Time = 0.00112139

DEBUG cell=0 t=0.000981218→0.00112139 step=0.000140174 V=-0.295866 u1=0.705115 u2=0.99902 u3=0 Iion=1.14364
DEBUG cell=0 t=0.000981218→0.00112139 step=0.00126157 V=-0.295866 u1=0.705235 u2=0.99888 u3=0 Iion=1.14368
PIMPLE: iteration 1
DICPCG:  Solving for Vm, Initial residual = 3.50641e-05, Final residual = 6.26309e-17, No Iterations 5
PIMPLE: iteration 2
DICPCG:  Solving for Vm, Initial residual = 1.28472e-16, Final residual = 1.28472e-16, No Iterations 0
ExecutionTime = 0.75 s  ClockTime = 1 s

Time = 0.00126157

DEBUG cell=0 t=0.00112139→0.00126157 step=0.000140174 V=-0.295887 u1=0.705235 u2=0.99888 u3=0 Iion=1.14368
DEBUG cell=0 t=0.00112139→0.00126157 step=0.00126157 V=-0.295887 u1=0.705354 u2=0.99874 u3=0 Iion=1.14372
PIMPLE: iteration 1
DICPCG:  Solving for Vm, Initial residual = 3.50592e-05, Final residual = 6.26221e-17, No Iterations 5
PIMPLE: iteration 2
DICPCG:  Solving for Vm, Initial residual = 1.28202e-16, Final residual = 1.28202e-16, No Iterations 0
ExecutionTime = 0.81 s  ClockTime = 1 s

Time = 0.00140174

DEBUG cell=0 t=0.00126157→0.00140174 step=0.000140174 V=-0.295908 u1=0.705354 u2=0.99874 u3=0 Iion=1.14372
DEBUG cell=0 t=0.00126157→0.00140174 step=0.00126157 V=-0.295908 u1=0.705473 u2=0.9986 u3=0 Iion=1.14376
PIMPLE: iteration 1
DICPCG:  Solving for Vm, Initial residual = 3.50543e-05, Final residual = 6.26134e-17, No Iterations 5
PIMPLE: iteration 2
DICPCG:  Solving for Vm, Initial residual = 1.28751e-16, Final residual = 1.28751e-16, No Iterations 0
ExecutionTime = 0.88 s  ClockTime = 1 s

Time = 0.00154191

DEBUG cell=0 t=0.00140174→0.00154191 step=0.000140174 V=-0.295929 u1=0.705473 u2=0.9986 u3=0 Iion=1.14376
DEBUG cell=0 t=0.00140174→0.00154191 step=0.00126157 V=-0.295929 u1=0.705593 u2=0.99846 u3=0 Iion=1.1438
PIMPLE: iteration 1
DICPCG:  Solving for Vm, Initial residual = 3.50494e-05, Final residual = 6.26046e-17, No Iterations 5
PIMPLE: iteration 2
DICPCG:  Solving for Vm, Initial residual = 1.28375e-16, Final residual = 1.28375e-16, No Iterations 0
ExecutionTime = 0.95 s  ClockTime = 1 s

Time = 0.00168209

DEBUG cell=0 t=0.00154191→0.00168209 step=0.000140174 V=-0.295949 u1=0.705593 u2=0.99846 u3=0 Iion=1.1438
DEBUG cell=0 t=0.00154191→0.00168209 step=0.00126157 V=-0.295949 u1=0.705712 u2=0.998321 u3=0 Iion=1.14383
PIMPLE: iteration 1
DICPCG:  Solving for Vm, Initial residual = 3.50445e-05, Final residual = 6.25959e-17, No Iterations 5
PIMPLE: iteration 2
DICPCG:  Solving for Vm, Initial residual = 1.28389e-16, Final residual = 1.28389e-16, No Iterations 0
ExecutionTime = 1.02 s  ClockTime = 1 s

Time = 0.00182226

DEBUG cell=0 t=0.00168209→0.00182226 step=0.000140174 V=-0.29597 u1=0.705712 u2=0.998321 u3=0 Iion=1.14383
DEBUG cell=0 t=0.00168209→0.00182226 step=0.00126157 V=-0.29597 u1=0.705832 u2=0.998181 u3=0 Iion=1.14387
PIMPLE: iteration 1
DICPCG:  Solving for Vm, Initial residual = 3.50396e-05, Final residual = 6.25872e-17, No Iterations 5
PIMPLE: iteration 2
DICPCG:  Solving for Vm, Initial residual = 1.28245e-16, Final residual = 1.28245e-16, No Iterations 0
ExecutionTime = 1.1 s  ClockTime = 2 s

Time = 0.00196244

DEBUG cell=0 t=0.00182226→0.00196244 step=0.000140174 V=-0.295991 u1=0.705832 u2=0.998181 u3=0 Iion=1.14387
DEBUG cell=0 t=0.00182226→0.00196244 step=0.00126157 V=-0.295991 u1=0.705951 u2=0.998041 u3=0 Iion=1.14391
PIMPLE: iteration 1
DICPCG:  Solving for Vm, Initial residual = 3.50347e-05, Final residual = 6.25784e-17, No Iterations 5
PIMPLE: iteration 2
DICPCG:  Solving for Vm, Initial residual = 1.2837e-16, Final residual = 1.2837e-16, No Iterations 0
ExecutionTime = 1.17 s  ClockTime = 2 s

Time = 0.00210261

DEBUG cell=0 t=0.00196244→0.00210261 step=0.000140174 V=-0.296012 u1=0.705951 u2=0.998041 u3=0 Iion=1.14391
DEBUG cell=0 t=0.00196244→0.00210261 step=0.00126157 V=-0.296012 u1=0.706071 u2=0.997902 u3=0 Iion=1.14395
PIMPLE: iteration 1
DICPCG:  Solving for Vm, Initial residual = 3.50299e-05, Final residual = 6.25697e-17, No Iterations 5
PIMPLE: iteration 2
DICPCG:  Solving for Vm, Initial residual = 1.28377e-16, Final residual = 1.28377e-16, No Iterations 0
ExecutionTime = 1.25 s  ClockTime = 2 s

Time = 0.00224278

DEBUG cell=0 t=0.00210261→0.00224278 step=0.000140174 V=-0.296032 u1=0.706071 u2=0.997902 u3=0 Iion=1.14395
DEBUG cell=0 t=0.00210261→0.00224278 step=0.00126157 V=-0.296032 u1=0.70619 u2=0.997762 u3=0 Iion=1.14399
PIMPLE: iteration 1
DICPCG:  Solving for Vm, Initial residual = 3.5025e-05, Final residual = 6.25609e-17, No Iterations 5
PIMPLE: iteration 2
DICPCG:  Solving for Vm, Initial residual = 1.28459e-16, Final residual = 1.28459e-16, No Iterations 0
ExecutionTime = 1.32 s  ClockTime = 2 s

Time = 0.00238296

DEBUG cell=0 t=0.00224278→0.00238296 step=0.000140174 V=-0.296053 u1=0.70619 u2=0.997762 u3=0 Iion=1.14399
DEBUG cell=0 t=0.00224278→0.00238296 step=0.00126157 V=-0.296053 u1=0.70631 u2=0.997623 u3=0 Iion=1.14403
PIMPLE: iteration 1
DICPCG:  Solving for Vm, Initial residual = 3.50201e-05, Final residual = 6.25522e-17, No Iterations 5
PIMPLE: iteration 2
DICPCG:  Solving for Vm, Initial residual = 1.28176e-16, Final residual = 1.28176e-16, No Iterations 0
ExecutionTime = 1.38 s  ClockTime = 2 s

Time = 0.00252313

DEBUG cell=0 t=0.00238296→0.00252313 step=0.000140174 V=-0.296074 u1=0.70631 u2=0.997623 u3=0 Iion=1.14403
DEBUG cell=0 t=0.00238296→0.00252313 step=0.00126157 V=-0.296074 u1=0.706429 u2=0.997483 u3=0 Iion=1.14407
PIMPLE: iteration 1
DICPCG:  Solving for Vm, Initial residual = 3.50152e-05, Final residual = 6.25435e-17, No Iterations 5
PIMPLE: iteration 2
DICPCG:  Solving for Vm, Initial residual = 1.28245e-16, Final residual = 1.28245e-16, No Iterations 0
ExecutionTime = 1.46 s  ClockTime = 2 s

Time = 0.00266331

DEBUG cell=0 t=0.00252313→0.00266331 step=0.000140174 V=-0.296095 u1=0.706429 u2=0.997483 u3=0 Iion=1.14407
DEBUG cell=0 t=0.00252313→0.00266331 step=0.00126157 V=-0.296095 u1=0.706549 u2=0.997344 u3=0 Iion=1.14411
PIMPLE: iteration 1
DICPCG:  Solving for Vm, Initial residual = 3.50103e-05, Final residual = 6.25348e-17, No Iterations 5
PIMPLE: iteration 2
DICPCG:  Solving for Vm, Initial residual = 1.28328e-16, Final residual = 1.28328e-16, No Iterations 0
ExecutionTime = 1.53 s  ClockTime = 2 s

Time = 0.00280348

DEBUG cell=0 t=0.00266331→0.00280348 step=0.000140174 V=-0.296115 u1=0.706549 u2=0.997344 u3=0 Iion=1.14411
DEBUG cell=0 t=0.00266331→0.00280348 step=0.00126157 V=-0.296115 u1=0.706668 u2=0.997204 u3=0 Iion=1.14415
PIMPLE: iteration 1
DICPCG:  Solving for Vm, Initial residual = 3.50054e-05, Final residual = 6.2526e-17, No Iterations 5
PIMPLE: iteration 2
DICPCG:  Solving for Vm, Initial residual = 1.28368e-16, Final residual = 1.28368e-16, No Iterations 0
ExecutionTime = 1.59 s  ClockTime = 2 s

Time = 0.00294365

DEBUG cell=0 t=0.00280348→0.00294365 step=0.000140174 V=-0.296136 u1=0.706668 u2=0.997204 u3=0 Iion=1.14415
DEBUG cell=0 t=0.00280348→0.00294365 step=0.00126157 V=-0.296136 u1=0.706788 u2=0.997065 u3=0 Iion=1.14418
PIMPLE: iteration 1
DICPCG:  Solving for Vm, Initial residual = 3.50005e-05, Final residual = 6.25173e-17, No Iterations 5
PIMPLE: iteration 2
DICPCG:  Solving for Vm, Initial residual = 1.28365e-16, Final residual = 1.28365e-16, No Iterations 0
ExecutionTime = 1.66 s  ClockTime = 2 s

Time = 0.00308383

DEBUG cell=0 t=0.00294365→0.00308383 step=0.000140174 V=-0.296157 u1=0.706788 u2=0.997065 u3=0 Iion=1.14418
DEBUG cell=0 t=0.00294365→0.00308383 step=0.00126157 V=-0.296157 u1=0.706907 u2=0.996926 u3=0 Iion=1.14422
PIMPLE: iteration 1
DICPCG:  Solving for Vm, Initial residual = 3.49957e-05, Final residual = 6.25086e-17, No Iterations 5
PIMPLE: iteration 2
DICPCG:  Solving for Vm, Initial residual = 1.28345e-16, Final residual = 1.28345e-16, No Iterations 0
ExecutionTime = 1.74 s  ClockTime = 2 s

Time = 0.003224

DEBUG cell=0 t=0.00308383→0.003224 step=0.000140174 V=-0.296177 u1=0.706907 u2=0.996926 u3=0 Iion=1.14422
DEBUG cell=0 t=0.00308383→0.003224 step=0.00126157 V=-0.296177 u1=0.707027 u2=0.996786 u3=0 Iion=1.14426
PIMPLE: iteration 1
DICPCG:  Solving for Vm, Initial residual = 3.49908e-05, Final residual = 6.24999e-17, No Iterations 5
PIMPLE: iteration 2
DICPCG:  Solving for Vm, Initial residual = 1.2825e-16, Final residual = 1.2825e-16, No Iterations 0
ExecutionTime = 1.81 s  ClockTime = 2 s

Time = 0.00336418

DEBUG cell=0 t=0.003224→0.00336418 step=0.000140174 V=-0.296198 u1=0.707027 u2=0.996786 u3=0 Iion=1.14426
DEBUG cell=0 t=0.003224→0.00336418 step=0.00126157 V=-0.296198 u1=0.707146 u2=0.996647 u3=0 Iion=1.1443
PIMPLE: iteration 1
DICPCG:  Solving for Vm, Initial residual = 3.49859e-05, Final residual = 6.24912e-17, No Iterations 5
PIMPLE: iteration 2
DICPCG:  Solving for Vm, Initial residual = 1.2821e-16, Final residual = 1.2821e-16, No Iterations 0
ExecutionTime = 1.88 s  ClockTime = 2 s

Time = 0.00350435

DEBUG cell=0 t=0.00336418→0.00350435 step=0.000140174 V=-0.296219 u1=0.707146 u2=0.996647 u3=0 Iion=1.1443
DEBUG cell=0 t=0.00336418→0.00350435 step=0.00126157 V=-0.296219 u1=0.707266 u2=0.996508 u3=0 Iion=1.14434
PIMPLE: iteration 1
DICPCG:  Solving for Vm, Initial residual = 3.4981e-05, Final residual = 6.24825e-17, No Iterations 5
PIMPLE: iteration 2
DICPCG:  Solving for Vm, Initial residual = 1.28214e-16, Final residual = 1.28214e-16, No Iterations 0
ExecutionTime = 1.95 s  ClockTime = 2 s

Time = 0.00364452

DEBUG cell=0 t=0.00350435→0.00364452 step=0.000140174 V=-0.29624 u1=0.707266 u2=0.996508 u3=0 Iion=1.14434
DEBUG cell=0 t=0.00350435→0.00364452 step=0.00126157 V=-0.29624 u1=0.707385 u2=0.996369 u3=0 Iion=1.14438
PIMPLE: iteration 1
DICPCG:  Solving for Vm, Initial residual = 3.49761e-05, Final residual = 6.24737e-17, No Iterations 5
PIMPLE: iteration 2
DICPCG:  Solving for Vm, Initial residual = 1.28169e-16, Final residual = 1.28169e-16, No Iterations 0
ExecutionTime = 2.03 s  ClockTime = 2 s

Time = 0.0037847

DEBUG cell=0 t=0.00364452→0.0037847 step=0.000140174 V=-0.29626 u1=0.707385 u2=0.996369 u3=0 Iion=1.14438
DEBUG cell=0 t=0.00364452→0.0037847 step=0.00126157 V=-0.29626 u1=0.707504 u2=0.99623 u3=0 Iion=1.14442
PIMPLE: iteration 1
DICPCG:  Solving for Vm, Initial residual = 3.49713e-05, Final residual = 6.2465e-17, No Iterations 5
PIMPLE: iteration 2
DICPCG:  Solving for Vm, Initial residual = 1.28146e-16, Final residual = 1.28146e-16, No Iterations 0
ExecutionTime = 2.1 s  ClockTime = 3 s

Time = 0.00392487

DEBUG cell=0 t=0.0037847→0.00392487 step=0.000140174 V=-0.296281 u1=0.707504 u2=0.99623 u3=0 Iion=1.14442
DEBUG cell=0 t=0.0037847→0.00392487 step=0.00126157 V=-0.296281 u1=0.707624 u2=0.99609 u3=0 Iion=1.14446
PIMPLE: iteration 1
DICPCG:  Solving for Vm, Initial residual = 3.49664e-05, Final residual = 6.24563e-17, No Iterations 5
PIMPLE: iteration 2
DICPCG:  Solving for Vm, Initial residual = 1.28052e-16, Final residual = 1.28052e-16, No Iterations 0
ExecutionTime = 2.17 s  ClockTime = 3 s

Time = 0.00406505

DEBUG cell=0 t=0.00392487→0.00406505 step=0.000140174 V=-0.296302 u1=0.707624 u2=0.99609 u3=0 Iion=1.14446
DEBUG cell=0 t=0.00392487→0.00406505 step=0.00126157 V=-0.296302 u1=0.707743 u2=0.995951 u3=0 Iion=1.1445
PIMPLE: iteration 1
DICPCG:  Solving for Vm, Initial residual = 3.49615e-05, Final residual = 6.24476e-17, No Iterations 5
PIMPLE: iteration 2
DICPCG:  Solving for Vm, Initial residual = 1.2819e-16, Final residual = 1.2819e-16, No Iterations 0
ExecutionTime = 2.24 s  ClockTime = 3 s

Time = 0.00420522

DEBUG cell=0 t=0.00406505→0.00420522 step=0.000140174 V=-0.296323 u1=0.707743 u2=0.995951 u3=0 Iion=1.1445
DEBUG cell=0 t=0.00406505→0.00420522 step=0.00126157 V=-0.296323 u1=0.707863 u2=0.995812 u3=0 Iion=1.14453
PIMPLE: iteration 1
DICPCG:  Solving for Vm, Initial residual = 3.49567e-05, Final residual = 6.24389e-17, No Iterations 5
PIMPLE: iteration 2
DICPCG:  Solving for Vm, Initial residual = 1.28311e-16, Final residual = 1.28311e-16, No Iterations 0
ExecutionTime = 2.31 s  ClockTime = 3 s

Time = 0.00434539

DEBUG cell=0 t=0.00420522→0.00434539 step=0.000140174 V=-0.296343 u1=0.707863 u2=0.995812 u3=0 Iion=1.14453
DEBUG cell=0 t=0.00420522→0.00434539 step=0.00126157 V=-0.296343 u1=0.707982 u2=0.995673 u3=0 Iion=1.14457
PIMPLE: iteration 1
DICPCG:  Solving for Vm, Initial residual = 3.49518e-05, Final residual = 6.24302e-17, No Iterations 5
PIMPLE: iteration 2
DICPCG:  Solving for Vm, Initial residual = 1.28125e-16, Final residual = 1.28125e-16, No Iterations 0
ExecutionTime = 2.38 s  ClockTime = 3 s

Time = 0.00448557

DEBUG cell=0 t=0.00434539→0.00448557 step=0.000140174 V=-0.296364 u1=0.707982 u2=0.995673 u3=0 Iion=1.14457
DEBUG cell=0 t=0.00434539→0.00448557 step=0.00126157 V=-0.296364 u1=0.708102 u2=0.995534 u3=0 Iion=1.14461
PIMPLE: iteration 1
DICPCG:  Solving for Vm, Initial residual = 3.49469e-05, Final residual = 6.24215e-17, No Iterations 5
PIMPLE: iteration 2
DICPCG:  Solving for Vm, Initial residual = 1.2805e-16, Final residual = 1.2805e-16, No Iterations 0
ExecutionTime = 2.45 s  ClockTime = 3 s

Time = 0.00462574

DEBUG cell=0 t=0.00448557→0.00462574 step=0.000140174 V=-0.296385 u1=0.708102 u2=0.995534 u3=0 Iion=1.14461
DEBUG cell=0 t=0.00448557→0.00462574 step=0.00126157 V=-0.296385 u1=0.708221 u2=0.995396 u3=0 Iion=1.14465
PIMPLE: iteration 1
DICPCG:  Solving for Vm, Initial residual = 3.4942e-05, Final residual = 6.24128e-17, No Iterations 5
PIMPLE: iteration 2
DICPCG:  Solving for Vm, Initial residual = 1.28083e-16, Final residual = 1.28083e-16, No Iterations 0
ExecutionTime = 2.52 s  ClockTime = 3 s

Time = 0.00476592

DEBUG cell=0 t=0.00462574→0.00476592 step=0.000140174 V=-0.296405 u1=0.708221 u2=0.995396 u3=0 Iion=1.14465
DEBUG cell=0 t=0.00462574→0.00476592 step=0.00126157 V=-0.296405 u1=0.708341 u2=0.995257 u3=0 Iion=1.14469
PIMPLE: iteration 1
DICPCG:  Solving for Vm, Initial residual = 3.49372e-05, Final residual = 6.24042e-17, No Iterations 5
PIMPLE: iteration 2
DICPCG:  Solving for Vm, Initial residual = 1.28067e-16, Final residual = 1.28067e-16, No Iterations 0
ExecutionTime = 2.59 s  ClockTime = 3 s

Time = 0.00490609

DEBUG cell=0 t=0.00476592→0.00490609 step=0.000140174 V=-0.296426 u1=0.708341 u2=0.995257 u3=0 Iion=1.14469
DEBUG cell=0 t=0.00476592→0.00490609 step=0.00126157 V=-0.296426 u1=0.70846 u2=0.995118 u3=0 Iion=1.14473
PIMPLE: iteration 1
DICPCG:  Solving for Vm, Initial residual = 3.49323e-05, Final residual = 6.23955e-17, No Iterations 5
PIMPLE: iteration 2
DICPCG:  Solving for Vm, Initial residual = 1.28153e-16, Final residual = 1.28153e-16, No Iterations 0
ExecutionTime = 2.66 s  ClockTime = 3 s

Time = 0.00504626

DEBUG cell=0 t=0.00490609→0.00504626 step=0.000140174 V=-0.296447 u1=0.70846 u2=0.995118 u3=0 Iion=1.14473
DEBUG cell=0 t=0.00490609→0.00504626 step=0.00126157 V=-0.296447 u1=0.70858 u2=0.994979 u3=0 Iion=1.14477
PIMPLE: iteration 1
DICPCG:  Solving for Vm, Initial residual = 3.49275e-05, Final residual = 6.23868e-17, No Iterations 5
PIMPLE: iteration 2
DICPCG:  Solving for Vm, Initial residual = 1.28075e-16, Final residual = 1.28075e-16, No Iterations 0
ExecutionTime = 2.74 s  ClockTime = 3 s

Time = 0.00518644

DEBUG cell=0 t=0.00504626→0.00518644 step=0.000140174 V=-0.296468 u1=0.70858 u2=0.994979 u3=0 Iion=1.14477
DEBUG cell=0 t=0.00504626→0.00518644 step=0.00126157 V=-0.296468 u1=0.708699 u2=0.99484 u3=0 Iion=1.14481
PIMPLE: iteration 1
DICPCG:  Solving for Vm, Initial residual = 3.49226e-05, Final residual = 6.23781e-17, No Iterations 5
PIMPLE: iteration 2
DICPCG:  Solving for Vm, Initial residual = 1.28074e-16, Final residual = 1.28074e-16, No Iterations 0
ExecutionTime = 2.8 s  ClockTime = 3 s

Time = 0.00532661

DEBUG cell=0 t=0.00518644→0.00532661 step=0.000140174 V=-0.296488 u1=0.708699 u2=0.99484 u3=0 Iion=1.14481
DEBUG cell=0 t=0.00518644→0.00532661 step=0.00126157 V=-0.296488 u1=0.708819 u2=0.994702 u3=0 Iion=1.14484
PIMPLE: iteration 1
DICPCG:  Solving for Vm, Initial residual = 3.49177e-05, Final residual = 6.23694e-17, No Iterations 5
PIMPLE: iteration 2
DICPCG:  Solving for Vm, Initial residual = 1.28152e-16, Final residual = 1.28152e-16, No Iterations 0
ExecutionTime = 2.88 s  ClockTime = 3 s

Time = 0.00546679

DEBUG cell=0 t=0.00532661→0.00546679 step=0.000140174 V=-0.296509 u1=0.708819 u2=0.994702 u3=0 Iion=1.14484
DEBUG cell=0 t=0.00532661→0.00546679 step=0.00126157 V=-0.296509 u1=0.708938 u2=0.994563 u3=0 Iion=1.14488
PIMPLE: iteration 1
DICPCG:  Solving for Vm, Initial residual = 3.49129e-05, Final residual = 6.23607e-17, No Iterations 5
PIMPLE: iteration 2
DICPCG:  Solving for Vm, Initial residual = 1.28154e-16, Final residual = 1.28154e-16, No Iterations 0
ExecutionTime = 2.95 s  ClockTime = 3 s

Time = 0.00560696

DEBUG cell=0 t=0.00546679→0.00560696 step=0.000140174 V=-0.29653 u1=0.708938 u2=0.994563 u3=0 Iion=1.14488
DEBUG cell=0 t=0.00546679→0.00560696 step=0.00126157 V=-0.29653 u1=0.709058 u2=0.994424 u3=0 Iion=1.14492
PIMPLE: iteration 1
DICPCG:  Solving for Vm, Initial residual = 3.4908e-05, Final residual = 6.23521e-17, No Iterations 5
PIMPLE: iteration 2
DICPCG:  Solving for Vm, Initial residual = 1.28148e-16, Final residual = 1.28148e-16, No Iterations 0
ExecutionTime = 3.02 s  ClockTime = 3 s

Time = 0.00574713

DEBUG cell=0 t=0.00560696→0.00574713 step=0.000140174 V=-0.29655 u1=0.709058 u2=0.994424 u3=0 Iion=1.14492
DEBUG cell=0 t=0.00560696→0.00574713 step=0.00126157 V=-0.29655 u1=0.709177 u2=0.994286 u3=0 Iion=1.14496
PIMPLE: iteration 1
DICPCG:  Solving for Vm, Initial residual = 3.49032e-05, Final residual = 6.23434e-17, No Iterations 5
PIMPLE: iteration 2
DICPCG:  Solving for Vm, Initial residual = 1.2813e-16, Final residual = 1.2813e-16, No Iterations 0
ExecutionTime = 3.09 s  ClockTime = 3 s

Time = 0.00588731

DEBUG cell=0 t=0.00574713→0.00588731 step=0.000140174 V=-0.296571 u1=0.709177 u2=0.994286 u3=0 Iion=1.14496
DEBUG cell=0 t=0.00574713→0.00588731 step=0.00126157 V=-0.296571 u1=0.709297 u2=0.994147 u3=0 Iion=1.145
PIMPLE: iteration 1
DICPCG:  Solving for Vm, Initial residual = 3.48983e-05, Final residual = 6.23347e-17, No Iterations 5
PIMPLE: iteration 2
DICPCG:  Solving for Vm, Initial residual = 1.28208e-16, Final residual = 1.28208e-16, No Iterations 0
ExecutionTime = 3.16 s  ClockTime = 4 s

Time = 0.00602748

DEBUG cell=0 t=0.00588731→0.00602748 step=0.000140174 V=-0.296592 u1=0.709297 u2=0.994147 u3=0 Iion=1.145
DEBUG cell=0 t=0.00588731→0.00602748 step=0.00126157 V=-0.296592 u1=0.709416 u2=0.994009 u3=0 Iion=1.14504
PIMPLE: iteration 1
DICPCG:  Solving for Vm, Initial residual = 3.48935e-05, Final residual = 6.23261e-17, No Iterations 5
PIMPLE: iteration 2
DICPCG:  Solving for Vm, Initial residual = 1.28191e-16, Final residual = 1.28191e-16, No Iterations 0
ExecutionTime = 3.23 s  ClockTime = 4 s

Time = 0.00616766

DEBUG cell=0 t=0.00602748→0.00616766 step=0.000140174 V=-0.296612 u1=0.709416 u2=0.994009 u3=0 Iion=1.14504
DEBUG cell=0 t=0.00602748→0.00616766 step=0.00126157 V=-0.296612 u1=0.709536 u2=0.99387 u3=0 Iion=1.14508
PIMPLE: iteration 1
DICPCG:  Solving for Vm, Initial residual = 3.48886e-05, Final residual = 6.23174e-17, No Iterations 5
PIMPLE: iteration 2
DICPCG:  Solving for Vm, Initial residual = 1.28043e-16, Final residual = 1.28043e-16, No Iterations 0
ExecutionTime = 3.3 s  ClockTime = 4 s

Time = 0.00630783

DEBUG cell=0 t=0.00616766→0.00630783 step=0.000140174 V=-0.296633 u1=0.709536 u2=0.99387 u3=0 Iion=1.14508
DEBUG cell=0 t=0.00616766→0.00630783 step=0.00126157 V=-0.296633 u1=0.709655 u2=0.993732 u3=0 Iion=1.14512
PIMPLE: iteration 1
DICPCG:  Solving for Vm, Initial residual = 3.48838e-05, Final residual = 6.23087e-17, No Iterations 5
PIMPLE: iteration 2
DICPCG:  Solving for Vm, Initial residual = 1.28033e-16, Final residual = 1.28033e-16, No Iterations 0
ExecutionTime = 3.37 s  ClockTime = 4 s

Time = 0.006448

DEBUG cell=0 t=0.00630783→0.006448 step=0.000140174 V=-0.296654 u1=0.709655 u2=0.993732 u3=0 Iion=1.14512
DEBUG cell=0 t=0.00630783→0.006448 step=0.00126157 V=-0.296654 u1=0.709775 u2=0.993593 u3=0 Iion=1.14516
PIMPLE: iteration 1
DICPCG:  Solving for Vm, Initial residual = 3.48789e-05, Final residual = 6.23001e-17, No Iterations 5
PIMPLE: iteration 2
DICPCG:  Solving for Vm, Initial residual = 1.28017e-16, Final residual = 1.28017e-16, No Iterations 0
ExecutionTime = 3.44 s  ClockTime = 4 s

Time = 0.00658818

DEBUG cell=0 t=0.006448→0.00658818 step=0.000140174 V=-0.296675 u1=0.709775 u2=0.993593 u3=0 Iion=1.14516
DEBUG cell=0 t=0.006448→0.00658818 step=0.00126157 V=-0.296675 u1=0.709894 u2=0.993455 u3=0 Iion=1.14519
PIMPLE: iteration 1
DICPCG:  Solving for Vm, Initial residual = 3.48741e-05, Final residual = 6.22914e-17, No Iterations 5
PIMPLE: iteration 2
DICPCG:  Solving for Vm, Initial residual = 1.28008e-16, Final residual = 1.28008e-16, No Iterations 0
ExecutionTime = 3.51 s  ClockTime = 4 s

Time = 0.00672835

DEBUG cell=0 t=0.00658818→0.00672835 step=0.000140174 V=-0.296695 u1=0.709894 u2=0.993455 u3=0 Iion=1.14519
DEBUG cell=0 t=0.00658818→0.00672835 step=0.00126157 V=-0.296695 u1=0.710014 u2=0.993317 u3=0 Iion=1.14523
PIMPLE: iteration 1
DICPCG:  Solving for Vm, Initial residual = 3.48692e-05, Final residual = 6.22828e-17, No Iterations 5
PIMPLE: iteration 2
DICPCG:  Solving for Vm, Initial residual = 1.27991e-16, Final residual = 1.27991e-16, No Iterations 0
ExecutionTime = 3.57 s  ClockTime = 4 s

Time = 0.00686853

DEBUG cell=0 t=0.00672835→0.00686853 step=0.000140174 V=-0.296716 u1=0.710014 u2=0.993317 u3=0 Iion=1.14523
DEBUG cell=0 t=0.00672835→0.00686853 step=0.00126157 V=-0.296716 u1=0.710133 u2=0.993178 u3=0 Iion=1.14527
PIMPLE: iteration 1
DICPCG:  Solving for Vm, Initial residual = 3.48644e-05, Final residual = 6.22741e-17, No Iterations 5
PIMPLE: iteration 2
DICPCG:  Solving for Vm, Initial residual = 1.28022e-16, Final residual = 1.28022e-16, No Iterations 0
ExecutionTime = 3.63 s  ClockTime = 4 s

Time = 0.0070087

DEBUG cell=0 t=0.00686853→0.0070087 step=0.000140174 V=-0.296737 u1=0.710133 u2=0.993178 u3=0 Iion=1.14527
DEBUG cell=0 t=0.00686853→0.0070087 step=0.00126157 V=-0.296737 u1=0.710253 u2=0.99304 u3=0 Iion=1.14531
PIMPLE: iteration 1
DICPCG:  Solving for Vm, Initial residual = 3.48595e-05, Final residual = 6.22654e-17, No Iterations 5
PIMPLE: iteration 2
DICPCG:  Solving for Vm, Initial residual = 1.27936e-16, Final residual = 1.27936e-16, No Iterations 0
ExecutionTime = 3.7 s  ClockTime = 4 s

Time = 0.00714887

DEBUG cell=0 t=0.0070087→0.00714887 step=0.000140174 V=-0.296757 u1=0.710253 u2=0.99304 u3=0 Iion=1.14531
DEBUG cell=0 t=0.0070087→0.00714887 step=0.00126157 V=-0.296757 u1=0.710373 u2=0.992902 u3=0 Iion=1.14535
PIMPLE: iteration 1
DICPCG:  Solving for Vm, Initial residual = 3.48547e-05, Final residual = 6.22568e-17, No Iterations 5
PIMPLE: iteration 2
DICPCG:  Solving for Vm, Initial residual = 1.28266e-16, Final residual = 1.28266e-16, No Iterations 0
ExecutionTime = 3.77 s  ClockTime = 4 s

Time = 0.00728905

DEBUG cell=0 t=0.00714887→0.00728905 step=0.000140174 V=-0.296778 u1=0.710373 u2=0.992902 u3=0 Iion=1.14535
DEBUG cell=0 t=0.00714887→0.00728905 step=0.00126157 V=-0.296778 u1=0.710492 u2=0.992764 u3=0 Iion=1.14539
PIMPLE: iteration 1
DICPCG:  Solving for Vm, Initial residual = 3.48498e-05, Final residual = 6.22482e-17, No Iterations 5
PIMPLE: iteration 2
DICPCG:  Solving for Vm, Initial residual = 1.28045e-16, Final residual = 1.28045e-16, No Iterations 0
ExecutionTime = 3.84 s  ClockTime = 4 s

Time = 0.00742922

DEBUG cell=0 t=0.00728905→0.00742922 step=0.000140174 V=-0.296799 u1=0.710492 u2=0.992764 u3=0 Iion=1.14539
DEBUG cell=0 t=0.00728905→0.00742922 step=0.00126157 V=-0.296799 u1=0.710612 u2=0.992626 u3=0 Iion=1.14543
PIMPLE: iteration 1
DICPCG:  Solving for Vm, Initial residual = 3.4845e-05, Final residual = 6.22395e-17, No Iterations 5
PIMPLE: iteration 2
DICPCG:  Solving for Vm, Initial residual = 1.27961e-16, Final residual = 1.27961e-16, No Iterations 0
ExecutionTime = 3.91 s  ClockTime = 4 s

Time = 0.0075694

DEBUG cell=0 t=0.00742922→0.0075694 step=0.000140174 V=-0.296819 u1=0.710612 u2=0.992626 u3=0 Iion=1.14543
DEBUG cell=0 t=0.00742922→0.0075694 step=0.00126157 V=-0.296819 u1=0.710731 u2=0.992488 u3=0 Iion=1.14547
PIMPLE: iteration 1
DICPCG:  Solving for Vm, Initial residual = 3.48402e-05, Final residual = 6.22309e-17, No Iterations 5
PIMPLE: iteration 2
DICPCG:  Solving for Vm, Initial residual = 1.28045e-16, Final residual = 1.28045e-16, No Iterations 0
ExecutionTime = 3.97 s  ClockTime = 4 s

Time = 0.00770957

DEBUG cell=0 t=0.0075694→0.00770957 step=0.000140174 V=-0.29684 u1=0.710731 u2=0.992488 u3=0 Iion=1.14547
DEBUG cell=0 t=0.0075694→0.00770957 step=0.00126157 V=-0.29684 u1=0.710851 u2=0.992349 u3=0 Iion=1.14551
PIMPLE: iteration 1
DICPCG:  Solving for Vm, Initial residual = 3.48353e-05, Final residual = 6.22222e-17, No Iterations 5
PIMPLE: iteration 2
DICPCG:  Solving for Vm, Initial residual = 1.27827e-16, Final residual = 1.27827e-16, No Iterations 0
ExecutionTime = 4.04 s  ClockTime = 4 s

Time = 0.00784974

DEBUG cell=0 t=0.00770957→0.00784974 step=0.000140174 V=-0.296861 u1=0.710851 u2=0.992349 u3=0 Iion=1.14551
DEBUG cell=0 t=0.00770957→0.00784974 step=0.00126157 V=-0.296861 u1=0.71097 u2=0.992211 u3=0 Iion=1.14554
PIMPLE: iteration 1
DICPCG:  Solving for Vm, Initial residual = 3.48305e-05, Final residual = 6.22136e-17, No Iterations 5
PIMPLE: iteration 2
DICPCG:  Solving for Vm, Initial residual = 1.27892e-16, Final residual = 1.27892e-16, No Iterations 0
ExecutionTime = 4.1 s  ClockTime = 5 s

Time = 0.00798992

DEBUG cell=0 t=0.00784974→0.00798992 step=0.000140174 V=-0.296881 u1=0.71097 u2=0.992211 u3=0 Iion=1.14554
DEBUG cell=0 t=0.00784974→0.00798992 step=0.00126157 V=-0.296881 u1=0.71109 u2=0.992073 u3=0 Iion=1.14558
PIMPLE: iteration 1
DICPCG:  Solving for Vm, Initial residual = 3.48257e-05, Final residual = 6.2205e-17, No Iterations 5
PIMPLE: iteration 2
DICPCG:  Solving for Vm, Initial residual = 1.28093e-16, Final residual = 1.28093e-16, No Iterations 0
ExecutionTime = 4.17 s  ClockTime = 5 s

Time = 0.00813009

DEBUG cell=0 t=0.00798992→0.00813009 step=0.000140174 V=-0.296902 u1=0.71109 u2=0.992073 u3=0 Iion=1.14558
DEBUG cell=0 t=0.00798992→0.00813009 step=0.00126157 V=-0.296902 u1=0.711209 u2=0.991936 u3=0 Iion=1.14562
PIMPLE: iteration 1
DICPCG:  Solving for Vm, Initial residual = 3.48208e-05, Final residual = 6.21963e-17, No Iterations 5
PIMPLE: iteration 2
DICPCG:  Solving for Vm, Initial residual = 1.28059e-16, Final residual = 1.28059e-16, No Iterations 0
ExecutionTime = 4.23 s  ClockTime = 5 s

Time = 0.00827027

DEBUG cell=0 t=0.00813009→0.00827027 step=0.000140174 V=-0.296923 u1=0.711209 u2=0.991936 u3=0 Iion=1.14562
DEBUG cell=0 t=0.00813009→0.00827027 step=0.00126157 V=-0.296923 u1=0.711329 u2=0.991798 u3=0 Iion=1.14566
PIMPLE: iteration 1
DICPCG:  Solving for Vm, Initial residual = 3.4816e-05, Final residual = 6.21877e-17, No Iterations 5
PIMPLE: iteration 2
DICPCG:  Solving for Vm, Initial residual = 1.27937e-16, Final residual = 1.27937e-16, No Iterations 0
ExecutionTime = 4.3 s  ClockTime = 5 s

Time = 0.00841044

DEBUG cell=0 t=0.00827027→0.00841044 step=0.000140174 V=-0.296943 u1=0.711329 u2=0.991798 u3=0 Iion=1.14566
DEBUG cell=0 t=0.00827027→0.00841044 step=0.00126157 V=-0.296943 u1=0.711448 u2=0.99166 u3=0 Iion=1.1457
PIMPLE: iteration 1
DICPCG:  Solving for Vm, Initial residual = 3.48112e-05, Final residual = 6.21791e-17, No Iterations 5
PIMPLE: iteration 2
DICPCG:  Solving for Vm, Initial residual = 1.28025e-16, Final residual = 1.28025e-16, No Iterations 0
ExecutionTime = 4.37 s  ClockTime = 5 s

Time = 0.00855061

DEBUG cell=0 t=0.00841044→0.00855061 step=0.000140174 V=-0.296964 u1=0.711448 u2=0.99166 u3=0 Iion=1.1457
DEBUG cell=0 t=0.00841044→0.00855061 step=0.00126157 V=-0.296964 u1=0.711568 u2=0.991522 u3=0 Iion=1.14574
PIMPLE: iteration 1
DICPCG:  Solving for Vm, Initial residual = 3.48063e-05, Final residual = 6.21704e-17, No Iterations 5
PIMPLE: iteration 2
DICPCG:  Solving for Vm, Initial residual = 1.28018e-16, Final residual = 1.28018e-16, No Iterations 0
ExecutionTime = 4.44 s  ClockTime = 5 s

Time = 0.00869079

DEBUG cell=0 t=0.00855061→0.00869079 step=0.000140174 V=-0.296985 u1=0.711568 u2=0.991522 u3=0 Iion=1.14574
DEBUG cell=0 t=0.00855061→0.00869079 step=0.00126157 V=-0.296985 u1=0.711687 u2=0.991384 u3=0 Iion=1.14578
PIMPLE: iteration 1
DICPCG:  Solving for Vm, Initial residual = 3.48015e-05, Final residual = 6.21618e-17, No Iterations 5
PIMPLE: iteration 2
DICPCG:  Solving for Vm, Initial residual = 1.27807e-16, Final residual = 1.27807e-16, No Iterations 0
ExecutionTime = 4.51 s  ClockTime = 5 s

Time = 0.00883096

DEBUG cell=0 t=0.00869079→0.00883096 step=0.000140174 V=-0.297005 u1=0.711687 u2=0.991384 u3=0 Iion=1.14578
DEBUG cell=0 t=0.00869079→0.00883096 step=0.00126157 V=-0.297005 u1=0.711807 u2=0.991246 u3=0 Iion=1.14582
PIMPLE: iteration 1
DICPCG:  Solving for Vm, Initial residual = 3.47967e-05, Final residual = 6.21532e-17, No Iterations 5
PIMPLE: iteration 2
DICPCG:  Solving for Vm, Initial residual = 1.27921e-16, Final residual = 1.27921e-16, No Iterations 0
ExecutionTime = 4.58 s  ClockTime = 5 s

Time = 0.00897114

DEBUG cell=0 t=0.00883096→0.00897114 step=0.000140174 V=-0.297026 u1=0.711807 u2=0.991246 u3=0 Iion=1.14582
DEBUG cell=0 t=0.00883096→0.00897114 step=0.00126157 V=-0.297026 u1=0.711926 u2=0.991109 u3=0 Iion=1.14585
PIMPLE: iteration 1
DICPCG:  Solving for Vm, Initial residual = 3.47918e-05, Final residual = 6.21446e-17, No Iterations 5
PIMPLE: iteration 2
DICPCG:  Solving for Vm, Initial residual = 1.28089e-16, Final residual = 1.28089e-16, No Iterations 0
ExecutionTime = 4.64 s  ClockTime = 5 s

Time = 0.00911131

DEBUG cell=0 t=0.00897114→0.00911131 step=0.000140174 V=-0.297047 u1=0.711926 u2=0.991109 u3=0 Iion=1.14585
DEBUG cell=0 t=0.00897114→0.00911131 step=0.00126157 V=-0.297047 u1=0.712046 u2=0.990971 u3=0 Iion=1.14589
PIMPLE: iteration 1
DICPCG:  Solving for Vm, Initial residual = 3.4787e-05, Final residual = 6.2136e-17, No Iterations 5
PIMPLE: iteration 2
DICPCG:  Solving for Vm, Initial residual = 1.27966e-16, Final residual = 1.27966e-16, No Iterations 0
ExecutionTime = 4.71 s  ClockTime = 5 s

Time = 0.00925148

DEBUG cell=0 t=0.00911131→0.00925148 step=0.000140174 V=-0.297067 u1=0.712046 u2=0.990971 u3=0 Iion=1.14589
DEBUG cell=0 t=0.00911131→0.00925148 step=0.00126157 V=-0.297067 u1=0.712165 u2=0.990833 u3=0 Iion=1.14593
PIMPLE: iteration 1
DICPCG:  Solving for Vm, Initial residual = 3.47822e-05, Final residual = 6.21274e-17, No Iterations 5
PIMPLE: iteration 2
DICPCG:  Solving for Vm, Initial residual = 1.27942e-16, Final residual = 1.27942e-16, No Iterations 0
ExecutionTime = 4.78 s  ClockTime = 5 s

Time = 0.00939166

DEBUG cell=0 t=0.00925148→0.00939166 step=0.000140174 V=-0.297088 u1=0.712165 u2=0.990833 u3=0 Iion=1.14593
DEBUG cell=0 t=0.00925148→0.00939166 step=0.00126157 V=-0.297088 u1=0.712285 u2=0.990696 u3=0 Iion=1.14597
PIMPLE: iteration 1
DICPCG:  Solving for Vm, Initial residual = 3.47774e-05, Final residual = 6.21187e-17, No Iterations 5
PIMPLE: iteration 2
DICPCG:  Solving for Vm, Initial residual = 1.27727e-16, Final residual = 1.27727e-16, No Iterations 0
ExecutionTime = 4.85 s  ClockTime = 5 s

Time = 0.00953183

DEBUG cell=0 t=0.00939166→0.00953183 step=0.000140174 V=-0.297109 u1=0.712285 u2=0.990696 u3=0 Iion=1.14597
DEBUG cell=0 t=0.00939166→0.00953183 step=0.00126157 V=-0.297109 u1=0.712405 u2=0.990558 u3=0 Iion=1.14601
PIMPLE: iteration 1
DICPCG:  Solving for Vm, Initial residual = 3.47726e-05, Final residual = 6.21101e-17, No Iterations 5
PIMPLE: iteration 2
DICPCG:  Solving for Vm, Initial residual = 1.28043e-16, Final residual = 1.28043e-16, No Iterations 0
ExecutionTime = 4.91 s  ClockTime = 5 s

Time = 0.00967201

DEBUG cell=0 t=0.00953183→0.00967201 step=0.000140174 V=-0.297129 u1=0.712405 u2=0.990558 u3=0 Iion=1.14601
DEBUG cell=0 t=0.00953183→0.00967201 step=0.00126157 V=-0.297129 u1=0.712524 u2=0.990421 u3=0 Iion=1.14605
PIMPLE: iteration 1
DICPCG:  Solving for Vm, Initial residual = 3.47677e-05, Final residual = 6.21015e-17, No Iterations 5
PIMPLE: iteration 2
DICPCG:  Solving for Vm, Initial residual = 1.2812e-16, Final residual = 1.2812e-16, No Iterations 0
ExecutionTime = 4.97 s  ClockTime = 5 s

Time = 0.00981218

DEBUG cell=0 t=0.00967201→0.00981218 step=0.000140174 V=-0.29715 u1=0.712524 u2=0.990421 u3=0 Iion=1.14605
DEBUG cell=0 t=0.00967201→0.00981218 step=0.00126157 V=-0.29715 u1=0.712644 u2=0.990283 u3=0 Iion=1.14609
PIMPLE: iteration 1
DICPCG:  Solving for Vm, Initial residual = 3.47629e-05, Final residual = 6.20929e-17, No Iterations 5
PIMPLE: iteration 2
DICPCG:  Solving for Vm, Initial residual = 1.27927e-16, Final residual = 1.27927e-16, No Iterations 0
ExecutionTime = 5.04 s  ClockTime = 5 s

Time = 0.00995235

DEBUG cell=0 t=0.00981218→0.00995235 step=0.000140174 V=-0.297171 u1=0.712644 u2=0.990283 u3=0 Iion=1.14609
DEBUG cell=0 t=0.00981218→0.00995235 step=0.00126157 V=-0.297171 u1=0.712763 u2=0.990146 u3=0 Iion=1.14613
PIMPLE: iteration 1
DICPCG:  Solving for Vm, Initial residual = 3.47581e-05, Final residual = 6.20843e-17, No Iterations 5
PIMPLE: iteration 2
DICPCG:  Solving for Vm, Initial residual = 1.27899e-16, Final residual = 1.27899e-16, No Iterations 0
ExecutionTime = 5.11 s  ClockTime = 6 s

Time = 0.0100925

DEBUG cell=0 t=0.00995235→0.0100925 step=0.000140174 V=-0.297191 u1=0.712763 u2=0.990146 u3=0 Iion=1.14613
DEBUG cell=0 t=0.00995235→0.0100925 step=0.00126157 V=-0.297191 u1=0.712883 u2=0.990008 u3=0 Iion=1.14617
PIMPLE: iteration 1
DICPCG:  Solving for Vm, Initial residual = 3.47533e-05, Final residual = 6.20757e-17, No Iterations 5
PIMPLE: iteration 2
DICPCG:  Solving for Vm, Initial residual = 1.27981e-16, Final residual = 1.27981e-16, No Iterations 0
ExecutionTime = 5.18 s  ClockTime = 6 s

Time = 0.0102327

DEBUG cell=0 t=0.0100925→0.0102327 step=0.000140174 V=-0.297212 u1=0.712883 u2=0.990008 u3=0 Iion=1.14617
DEBUG cell=0 t=0.0100925→0.0102327 step=0.00126157 V=-0.297212 u1=0.713002 u2=0.989871 u3=0 Iion=1.1462
PIMPLE: iteration 1
DICPCG:  Solving for Vm, Initial residual = 3.47485e-05, Final residual = 6.20671e-17, No Iterations 5
PIMPLE: iteration 2
DICPCG:  Solving for Vm, Initial residual = 1.27755e-16, Final residual = 1.27755e-16, No Iterations 0
ExecutionTime = 5.24 s  ClockTime = 6 s

Time = 0.0103729

DEBUG cell=0 t=0.0102327→0.0103729 step=0.000140174 V=-0.297233 u1=0.713002 u2=0.989871 u3=0 Iion=1.1462
DEBUG cell=0 t=0.0102327→0.0103729 step=0.00126157 V=-0.297233 u1=0.713122 u2=0.989734 u3=0 Iion=1.14624
PIMPLE: iteration 1
DICPCG:  Solving for Vm, Initial residual = 3.47437e-05, Final residual = 6.20585e-17, No Iterations 5
PIMPLE: iteration 2
DICPCG:  Solving for Vm, Initial residual = 1.27851e-16, Final residual = 1.27851e-16, No Iterations 0
ExecutionTime = 5.31 s  ClockTime = 6 s

Time = 0.010513

DEBUG cell=0 t=0.0103729→0.010513 step=0.000140174 V=-0.297253 u1=0.713122 u2=0.989734 u3=0 Iion=1.14624
DEBUG cell=0 t=0.0103729→0.010513 step=0.00126157 V=-0.297253 u1=0.713241 u2=0.989596 u3=0 Iion=1.14628
PIMPLE: iteration 1
DICPCG:  Solving for Vm, Initial residual = 3.47389e-05, Final residual = 6.205e-17, No Iterations 5
PIMPLE: iteration 2
DICPCG:  Solving for Vm, Initial residual = 1.28044e-16, Final residual = 1.28044e-16, No Iterations 0
ExecutionTime = 5.38 s  ClockTime = 6 s

Time = 0.0106532

DEBUG cell=0 t=0.010513→0.0106532 step=0.000140174 V=-0.297274 u1=0.713241 u2=0.989596 u3=0 Iion=1.14628
DEBUG cell=0 t=0.010513→0.0106532 step=0.00126157 V=-0.297274 u1=0.713361 u2=0.989459 u3=0 Iion=1.14632
PIMPLE: iteration 1
DICPCG:  Solving for Vm, Initial residual = 3.47341e-05, Final residual = 6.20414e-17, No Iterations 5
PIMPLE: iteration 2
DICPCG:  Solving for Vm, Initial residual = 1.27745e-16, Final residual = 1.27745e-16, No Iterations 0
ExecutionTime = 5.45 s  ClockTime = 6 s

Time = 0.0107934

DEBUG cell=0 t=0.0106532→0.0107934 step=0.000140174 V=-0.297295 u1=0.713361 u2=0.989459 u3=0 Iion=1.14632
DEBUG cell=0 t=0.0106532→0.0107934 step=0.00126157 V=-0.297295 u1=0.713481 u2=0.989322 u3=0 Iion=1.14636
PIMPLE: iteration 1
DICPCG:  Solving for Vm, Initial residual = 3.47292e-05, Final residual = 6.20328e-17, No Iterations 5
PIMPLE: iteration 2
DICPCG:  Solving for Vm, Initial residual = 1.27794e-16, Final residual = 1.27794e-16, No Iterations 0
ExecutionTime = 5.52 s  ClockTime = 6 s

Time = 0.0109336

DEBUG cell=0 t=0.0107934→0.0109336 step=0.000140174 V=-0.297315 u1=0.713481 u2=0.989322 u3=0 Iion=1.14636
DEBUG cell=0 t=0.0107934→0.0109336 step=0.00126157 V=-0.297315 u1=0.7136 u2=0.989185 u3=0 Iion=1.1464
PIMPLE: iteration 1
DICPCG:  Solving for Vm, Initial residual = 3.47244e-05, Final residual = 6.20242e-17, No Iterations 5
PIMPLE: iteration 2
DICPCG:  Solving for Vm, Initial residual = 1.27725e-16, Final residual = 1.27725e-16, No Iterations 0
ExecutionTime = 5.59 s  ClockTime = 6 s

Time = 0.0110737

DEBUG cell=0 t=0.0109336→0.0110737 step=0.000140174 V=-0.297336 u1=0.7136 u2=0.989185 u3=0 Iion=1.1464
DEBUG cell=0 t=0.0109336→0.0110737 step=0.00126157 V=-0.297336 u1=0.71372 u2=0.989048 u3=0 Iion=1.14644
PIMPLE: iteration 1
DICPCG:  Solving for Vm, Initial residual = 3.47196e-05, Final residual = 6.20156e-17, No Iterations 5
PIMPLE: iteration 2
DICPCG:  Solving for Vm, Initial residual = 1.27825e-16, Final residual = 1.27825e-16, No Iterations 0
ExecutionTime = 5.68 s  ClockTime = 6 s

Time = 0.0112139

DEBUG cell=0 t=0.0110737→0.0112139 step=0.000140174 V=-0.297357 u1=0.71372 u2=0.989048 u3=0 Iion=1.14644
DEBUG cell=0 t=0.0110737→0.0112139 step=0.00126157 V=-0.297357 u1=0.713839 u2=0.988911 u3=0 Iion=1.14648
PIMPLE: iteration 1
DICPCG:  Solving for Vm, Initial residual = 3.47148e-05, Final residual = 6.2007e-17, No Iterations 5
PIMPLE: iteration 2
DICPCG:  Solving for Vm, Initial residual = 1.27866e-16, Final residual = 1.27866e-16, No Iterations 0
ExecutionTime = 5.74 s  ClockTime = 6 s

Time = 0.0113541

DEBUG cell=0 t=0.0112139→0.0113541 step=0.000140174 V=-0.297377 u1=0.713839 u2=0.988911 u3=0 Iion=1.14648
DEBUG cell=0 t=0.0112139→0.0113541 step=0.00126157 V=-0.297377 u1=0.713959 u2=0.988773 u3=0 Iion=1.14652
PIMPLE: iteration 1
DICPCG:  Solving for Vm, Initial residual = 3.471e-05, Final residual = 6.19985e-17, No Iterations 5
PIMPLE: iteration 2
DICPCG:  Solving for Vm, Initial residual = 1.27854e-16, Final residual = 1.27854e-16, No Iterations 0
ExecutionTime = 5.81 s  ClockTime = 6 s

Time = 0.0114943

DEBUG cell=0 t=0.0113541→0.0114943 step=0.000140174 V=-0.297398 u1=0.713959 u2=0.988773 u3=0 Iion=1.14652
DEBUG cell=0 t=0.0113541→0.0114943 step=0.00126157 V=-0.297398 u1=0.714078 u2=0.988636 u3=0 Iion=1.14655
PIMPLE: iteration 1
DICPCG:  Solving for Vm, Initial residual = 3.47052e-05, Final residual = 6.19899e-17, No Iterations 5
PIMPLE: iteration 2
DICPCG:  Solving for Vm, Initial residual = 1.28143e-16, Final residual = 1.28143e-16, No Iterations 0
ExecutionTime = 5.89 s  ClockTime = 6 s

Time = 0.0116344

DEBUG cell=0 t=0.0114943→0.0116344 step=0.000140174 V=-0.297419 u1=0.714078 u2=0.988636 u3=0 Iion=1.14655
DEBUG cell=0 t=0.0114943→0.0116344 step=0.00126157 V=-0.297419 u1=0.714198 u2=0.988499 u3=0 Iion=1.14659
PIMPLE: iteration 1
DICPCG:  Solving for Vm, Initial residual = 3.47004e-05, Final residual = 6.19813e-17, No Iterations 5
PIMPLE: iteration 2
DICPCG:  Solving for Vm, Initial residual = 1.27578e-16, Final residual = 1.27578e-16, No Iterations 0
ExecutionTime = 5.97 s  ClockTime = 6 s

Time = 0.0117746

DEBUG cell=0 t=0.0116344→0.0117746 step=0.000140174 V=-0.297439 u1=0.714198 u2=0.988499 u3=0 Iion=1.14659
DEBUG cell=0 t=0.0116344→0.0117746 step=0.00126157 V=-0.297439 u1=0.714317 u2=0.988362 u3=0 Iion=1.14663
PIMPLE: iteration 1
DICPCG:  Solving for Vm, Initial residual = 3.46956e-05, Final residual = 6.19727e-17, No Iterations 5
PIMPLE: iteration 2
DICPCG:  Solving for Vm, Initial residual = 1.27745e-16, Final residual = 1.27745e-16, No Iterations 0
ExecutionTime = 6.03 s  ClockTime = 6 s

Time = 0.0119148

DEBUG cell=0 t=0.0117746→0.0119148 step=0.000140174 V=-0.29746 u1=0.714317 u2=0.988362 u3=0 Iion=1.14663
DEBUG cell=0 t=0.0117746→0.0119148 step=0.00126157 V=-0.29746 u1=0.714437 u2=0.988226 u3=0 Iion=1.14667
PIMPLE: iteration 1
DICPCG:  Solving for Vm, Initial residual = 3.46908e-05, Final residual = 6.19642e-17, No Iterations 5
PIMPLE: iteration 2
DICPCG:  Solving for Vm, Initial residual = 1.27821e-16, Final residual = 1.27821e-16, No Iterations 0
ExecutionTime = 6.11 s  ClockTime = 7 s

Time = 0.012055

DEBUG cell=0 t=0.0119148→0.012055 step=0.000140174 V=-0.297481 u1=0.714437 u2=0.988226 u3=0 Iion=1.14667
DEBUG cell=0 t=0.0119148→0.012055 step=0.00126157 V=-0.297481 u1=0.714557 u2=0.988089 u3=0 Iion=1.14671
PIMPLE: iteration 1
DICPCG:  Solving for Vm, Initial residual = 3.4686e-05, Final residual = 6.19556e-17, No Iterations 5
PIMPLE: iteration 2
DICPCG:  Solving for Vm, Initial residual = 1.27679e-16, Final residual = 1.27679e-16, No Iterations 0
ExecutionTime = 6.18 s  ClockTime = 7 s

Time = 0.0121951

DEBUG cell=0 t=0.012055→0.0121951 step=0.000140174 V=-0.297501 u1=0.714557 u2=0.988089 u3=0 Iion=1.14671
DEBUG cell=0 t=0.012055→0.0121951 step=0.00126157 V=-0.297501 u1=0.714676 u2=0.987952 u3=0 Iion=1.14675
PIMPLE: iteration 1
DICPCG:  Solving for Vm, Initial residual = 3.46812e-05, Final residual = 6.1947e-17, No Iterations 5
PIMPLE: iteration 2
DICPCG:  Solving for Vm, Initial residual = 1.27985e-16, Final residual = 1.27985e-16, No Iterations 0
ExecutionTime = 6.25 s  ClockTime = 7 s

Time = 0.0123353

DEBUG cell=0 t=0.0121951→0.0123353 step=0.000140174 V=-0.297522 u1=0.714676 u2=0.987952 u3=0 Iion=1.14675
DEBUG cell=0 t=0.0121951→0.0123353 step=0.00126157 V=-0.297522 u1=0.714796 u2=0.987815 u3=0 Iion=1.14679
PIMPLE: iteration 1
DICPCG:  Solving for Vm, Initial residual = 3.46765e-05, Final residual = 6.19385e-17, No Iterations 5
PIMPLE: iteration 2
DICPCG:  Solving for Vm, Initial residual = 1.27708e-16, Final residual = 1.27708e-16, No Iterations 0
ExecutionTime = 6.32 s  ClockTime = 7 s

Time = 0.0124755

DEBUG cell=0 t=0.0123353→0.0124755 step=0.000140174 V=-0.297542 u1=0.714796 u2=0.987815 u3=0 Iion=1.14679
DEBUG cell=0 t=0.0123353→0.0124755 step=0.00126157 V=-0.297542 u1=0.714915 u2=0.987678 u3=0 Iion=1.14683
PIMPLE: iteration 1
DICPCG:  Solving for Vm, Initial residual = 3.46717e-05, Final residual = 6.19299e-17, No Iterations 5
PIMPLE: iteration 2
DICPCG:  Solving for Vm, Initial residual = 1.27725e-16, Final residual = 1.27725e-16, No Iterations 0
ExecutionTime = 6.39 s  ClockTime = 7 s

Time = 0.0126157

DEBUG cell=0 t=0.0124755→0.0126157 step=0.000140174 V=-0.297563 u1=0.714915 u2=0.987678 u3=0 Iion=1.14683
DEBUG cell=0 t=0.0124755→0.0126157 step=0.00126157 V=-0.297563 u1=0.715035 u2=0.987542 u3=0 Iion=1.14686
PIMPLE: iteration 1
DICPCG:  Solving for Vm, Initial residual = 3.46669e-05, Final residual = 6.19214e-17, No Iterations 5
PIMPLE: iteration 2
DICPCG:  Solving for Vm, Initial residual = 1.2736e-16, Final residual = 1.2736e-16, No Iterations 0
ExecutionTime = 6.46 s  ClockTime = 7 s

Time = 0.0127558

DEBUG cell=0 t=0.0126157→0.0127558 step=0.000140174 V=-0.297584 u1=0.715035 u2=0.987542 u3=0 Iion=1.14686
DEBUG cell=0 t=0.0126157→0.0127558 step=0.00126157 V=-0.297584 u1=0.715154 u2=0.987405 u3=0 Iion=1.1469
PIMPLE: iteration 1
DICPCG:  Solving for Vm, Initial residual = 3.46621e-05, Final residual = 6.19128e-17, No Iterations 5
PIMPLE: iteration 2
DICPCG:  Solving for Vm, Initial residual = 1.27851e-16, Final residual = 1.27851e-16, No Iterations 0
ExecutionTime = 6.52 s  ClockTime = 7 s

Time = 0.012896

DEBUG cell=0 t=0.0127558→0.012896 step=0.000140174 V=-0.297604 u1=0.715154 u2=0.987405 u3=0 Iion=1.1469
DEBUG cell=0 t=0.0127558→0.012896 step=0.00126157 V=-0.297604 u1=0.715274 u2=0.987268 u3=0 Iion=1.14694
PIMPLE: iteration 1
DICPCG:  Solving for Vm, Initial residual = 3.46573e-05, Final residual = 6.19043e-17, No Iterations 5
PIMPLE: iteration 2
DICPCG:  Solving for Vm, Initial residual = 1.27724e-16, Final residual = 1.27724e-16, No Iterations 0
ExecutionTime = 6.59 s  ClockTime = 7 s

Time = 0.0130362

DEBUG cell=0 t=0.012896→0.0130362 step=0.000140174 V=-0.297625 u1=0.715274 u2=0.987268 u3=0 Iion=1.14694
DEBUG cell=0 t=0.012896→0.0130362 step=0.00126157 V=-0.297625 u1=0.715394 u2=0.987132 u3=0 Iion=1.14698
PIMPLE: iteration 1
DICPCG:  Solving for Vm, Initial residual = 3.46525e-05, Final residual = 6.18957e-17, No Iterations 5
PIMPLE: iteration 2
DICPCG:  Solving for Vm, Initial residual = 1.27699e-16, Final residual = 1.27699e-16, No Iterations 0
ExecutionTime = 6.66 s  ClockTime = 7 s

Time = 0.0131764

DEBUG cell=0 t=0.0130362→0.0131764 step=0.000140174 V=-0.297646 u1=0.715394 u2=0.987132 u3=0 Iion=1.14698
DEBUG cell=0 t=0.0130362→0.0131764 step=0.00126157 V=-0.297646 u1=0.715513 u2=0.986995 u3=0 Iion=1.14702
PIMPLE: iteration 1
DICPCG:  Solving for Vm, Initial residual = 3.46477e-05, Final residual = 6.18872e-17, No Iterations 5
PIMPLE: iteration 2
DICPCG:  Solving for Vm, Initial residual = 1.27585e-16, Final residual = 1.27585e-16, No Iterations 0
ExecutionTime = 6.73 s  ClockTime = 7 s

Time = 0.0133165

DEBUG cell=0 t=0.0131764→0.0133165 step=0.000140174 V=-0.297666 u1=0.715513 u2=0.986995 u3=0 Iion=1.14702
DEBUG cell=0 t=0.0131764→0.0133165 step=0.00126157 V=-0.297666 u1=0.715633 u2=0.986859 u3=0 Iion=1.14706
PIMPLE: iteration 1
DICPCG:  Solving for Vm, Initial residual = 3.46429e-05, Final residual = 6.18786e-17, No Iterations 5
PIMPLE: iteration 2
DICPCG:  Solving for Vm, Initial residual = 1.27667e-16, Final residual = 1.27667e-16, No Iterations 0
ExecutionTime = 6.8 s  ClockTime = 7 s

Time = 0.0134567

DEBUG cell=0 t=0.0133165→0.0134567 step=0.000140174 V=-0.297687 u1=0.715633 u2=0.986859 u3=0 Iion=1.14706
DEBUG cell=0 t=0.0133165→0.0134567 step=0.00126157 V=-0.297687 u1=0.715752 u2=0.986722 u3=0 Iion=1.1471
PIMPLE: iteration 1
DICPCG:  Solving for Vm, Initial residual = 3.46382e-05, Final residual = 6.18701e-17, No Iterations 5
PIMPLE: iteration 2
DICPCG:  Solving for Vm, Initial residual = 1.27626e-16, Final residual = 1.27626e-16, No Iterations 0
ExecutionTime = 6.86 s  ClockTime = 7 s

Time = 0.0135969

DEBUG cell=0 t=0.0134567→0.0135969 step=0.000140174 V=-0.297707 u1=0.715752 u2=0.986722 u3=0 Iion=1.1471
DEBUG cell=0 t=0.0134567→0.0135969 step=0.00126157 V=-0.297707 u1=0.715872 u2=0.986586 u3=0 Iion=1.14714
PIMPLE: iteration 1
DICPCG:  Solving for Vm, Initial residual = 3.46334e-05, Final residual = 6.18615e-17, No Iterations 5
PIMPLE: iteration 2
DICPCG:  Solving for Vm, Initial residual = 1.2758e-16, Final residual = 1.2758e-16, No Iterations 0
ExecutionTime = 6.93 s  ClockTime = 7 s

Time = 0.0137371

DEBUG cell=0 t=0.0135969→0.0137371 step=0.000140174 V=-0.297728 u1=0.715872 u2=0.986586 u3=0 Iion=1.14714
DEBUG cell=0 t=0.0135969→0.0137371 step=0.00126157 V=-0.297728 u1=0.715992 u2=0.986449 u3=0 Iion=1.14718
PIMPLE: iteration 1
DICPCG:  Solving for Vm, Initial residual = 3.46286e-05, Final residual = 6.1853e-17, No Iterations 5
PIMPLE: iteration 2
DICPCG:  Solving for Vm, Initial residual = 1.27716e-16, Final residual = 1.27716e-16, No Iterations 0
ExecutionTime = 7 s  ClockTime = 7 s

Time = 0.0138772

DEBUG cell=0 t=0.0137371→0.0138772 step=0.000140174 V=-0.297749 u1=0.715992 u2=0.986449 u3=0 Iion=1.14718
DEBUG cell=0 t=0.0137371→0.0138772 step=0.00126157 V=-0.297749 u1=0.716111 u2=0.986313 u3=0 Iion=1.14721
PIMPLE: iteration 1
DICPCG:  Solving for Vm, Initial residual = 3.46238e-05, Final residual = 6.18445e-17, No Iterations 5
PIMPLE: iteration 2
DICPCG:  Solving for Vm, Initial residual = 1.27699e-16, Final residual = 1.27699e-16, No Iterations 0
ExecutionTime = 7.06 s  ClockTime = 7 s

Time = 0.0140174

DEBUG cell=0 t=0.0138772→0.0140174 step=0.000140174 V=-0.297769 u1=0.716111 u2=0.986313 u3=0 Iion=1.14721
DEBUG cell=0 t=0.0138772→0.0140174 step=0.00126157 V=-0.297769 u1=0.716231 u2=0.986176 u3=0 Iion=1.14725
PIMPLE: iteration 1
DICPCG:  Solving for Vm, Initial residual = 3.4619e-05, Final residual = 6.18359e-17, No Iterations 5
PIMPLE: iteration 2
DICPCG:  Solving for Vm, Initial residual = 1.27608e-16, Final residual = 1.27608e-16, No Iterations 0
ExecutionTime = 7.13 s  ClockTime = 8 s

Time = 0.0141576

DEBUG cell=0 t=0.0140174→0.0141576 step=0.000140174 V=-0.29779 u1=0.716231 u2=0.986176 u3=0 Iion=1.14725
DEBUG cell=0 t=0.0140174→0.0141576 step=0.00126157 V=-0.29779 u1=0.71635 u2=0.98604 u3=0 Iion=1.14729
PIMPLE: iteration 1
DICPCG:  Solving for Vm, Initial residual = 3.46143e-05, Final residual = 6.18274e-17, No Iterations 5
PIMPLE: iteration 2
DICPCG:  Solving for Vm, Initial residual = 1.27796e-16, Final residual = 1.27796e-16, No Iterations 0
ExecutionTime = 7.2 s  ClockTime = 8 s

Time = 0.0142977

DEBUG cell=0 t=0.0141576→0.0142977 step=0.000140174 V=-0.297811 u1=0.71635 u2=0.98604 u3=0 Iion=1.14729
DEBUG cell=0 t=0.0141576→0.0142977 step=0.00126157 V=-0.297811 u1=0.71647 u2=0.985904 u3=0 Iion=1.14733
PIMPLE: iteration 1
DICPCG:  Solving for Vm, Initial residual = 3.46095e-05, Final residual = 6.18189e-17, No Iterations 5
PIMPLE: iteration 2
DICPCG:  Solving for Vm, Initial residual = 1.27636e-16, Final residual = 1.27636e-16, No Iterations 0
ExecutionTime = 7.26 s  ClockTime = 8 s

Time = 0.0144379

DEBUG cell=0 t=0.0142977→0.0144379 step=0.000140174 V=-0.297831 u1=0.71647 u2=0.985904 u3=0 Iion=1.14733
DEBUG cell=0 t=0.0142977→0.0144379 step=0.00126157 V=-0.297831 u1=0.71659 u2=0.985768 u3=0 Iion=1.14737
PIMPLE: iteration 1
DICPCG:  Solving for Vm, Initial residual = 3.46047e-05, Final residual = 6.18104e-17, No Iterations 5
PIMPLE: iteration 2
DICPCG:  Solving for Vm, Initial residual = 1.2756e-16, Final residual = 1.2756e-16, No Iterations 0
ExecutionTime = 7.33 s  ClockTime = 8 s

Time = 0.0145781

DEBUG cell=0 t=0.0144379→0.0145781 step=0.000140174 V=-0.297852 u1=0.71659 u2=0.985768 u3=0 Iion=1.14737
DEBUG cell=0 t=0.0144379→0.0145781 step=0.00126157 V=-0.297852 u1=0.716709 u2=0.985631 u3=0 Iion=1.14741
PIMPLE: iteration 1
DICPCG:  Solving for Vm, Initial residual = 3.45999e-05, Final residual = 6.18018e-17, No Iterations 5
PIMPLE: iteration 2
DICPCG:  Solving for Vm, Initial residual = 1.27638e-16, Final residual = 1.27638e-16, No Iterations 0
ExecutionTime = 7.4 s  ClockTime = 8 s

Time = 0.0147183

DEBUG cell=0 t=0.0145781→0.0147183 step=0.000140174 V=-0.297872 u1=0.716709 u2=0.985631 u3=0 Iion=1.14741
DEBUG cell=0 t=0.0145781→0.0147183 step=0.00126157 V=-0.297872 u1=0.716829 u2=0.985495 u3=0 Iion=1.14745
PIMPLE: iteration 1
DICPCG:  Solving for Vm, Initial residual = 3.45952e-05, Final residual = 6.17933e-17, No Iterations 5
PIMPLE: iteration 2
DICPCG:  Solving for Vm, Initial residual = 1.27662e-16, Final residual = 1.27662e-16, No Iterations 0
ExecutionTime = 7.46 s  ClockTime = 8 s

Time = 0.0148584

DEBUG cell=0 t=0.0147183→0.0148584 step=0.000140174 V=-0.297893 u1=0.716829 u2=0.985495 u3=0 Iion=1.14745
DEBUG cell=0 t=0.0147183→0.0148584 step=0.00126157 V=-0.297893 u1=0.716948 u2=0.985359 u3=0 Iion=1.14749
PIMPLE: iteration 1
DICPCG:  Solving for Vm, Initial residual = 3.45904e-05, Final residual = 6.17848e-17, No Iterations 5
PIMPLE: iteration 2
DICPCG:  Solving for Vm, Initial residual = 1.27633e-16, Final residual = 1.27633e-16, No Iterations 0
ExecutionTime = 7.53 s  ClockTime = 8 s

Time = 0.0149986

DEBUG cell=0 t=0.0148584→0.0149986 step=0.000140174 V=-0.297914 u1=0.716948 u2=0.985359 u3=0 Iion=1.14749
DEBUG cell=0 t=0.0148584→0.0149986 step=0.00126157 V=-0.297914 u1=0.717068 u2=0.985223 u3=0 Iion=1.14753
PIMPLE: iteration 1
DICPCG:  Solving for Vm, Initial residual = 3.45856e-05, Final residual = 6.17763e-17, No Iterations 5
PIMPLE: iteration 2
DICPCG:  Solving for Vm, Initial residual = 1.27702e-16, Final residual = 1.27702e-16, No Iterations 0
ExecutionTime = 7.6 s  ClockTime = 8 s

Time = 0.0151388

DEBUG cell=0 t=0.0149986→0.0151388 step=0.000140174 V=-0.297934 u1=0.717068 u2=0.985223 u3=0 Iion=1.14753
DEBUG cell=0 t=0.0149986→0.0151388 step=0.00126157 V=-0.297934 u1=0.717187 u2=0.985087 u3=0 Iion=1.14756
PIMPLE: iteration 1
DICPCG:  Solving for Vm, Initial residual = 3.45809e-05, Final residual = 6.17678e-17, No Iterations 5
PIMPLE: iteration 2
DICPCG:  Solving for Vm, Initial residual = 1.2746e-16, Final residual = 1.2746e-16, No Iterations 0
ExecutionTime = 7.67 s  ClockTime = 8 s

Time = 0.015279

DEBUG cell=0 t=0.0151388→0.015279 step=0.000140174 V=-0.297955 u1=0.717187 u2=0.985087 u3=0 Iion=1.14756
DEBUG cell=0 t=0.0151388→0.015279 step=0.00126157 V=-0.297955 u1=0.717307 u2=0.984951 u3=0 Iion=1.1476
PIMPLE: iteration 1
DICPCG:  Solving for Vm, Initial residual = 3.45761e-05, Final residual = 6.17593e-17, No Iterations 5
PIMPLE: iteration 2
DICPCG:  Solving for Vm, Initial residual = 1.27536e-16, Final residual = 1.27536e-16, No Iterations 0
ExecutionTime = 7.73 s  ClockTime = 8 s

Time = 0.0154191

DEBUG cell=0 t=0.015279→0.0154191 step=0.000140174 V=-0.297975 u1=0.717307 u2=0.984951 u3=0 Iion=1.1476
DEBUG cell=0 t=0.015279→0.0154191 step=0.00126157 V=-0.297975 u1=0.717427 u2=0.984815 u3=0 Iion=1.14764
PIMPLE: iteration 1
DICPCG:  Solving for Vm, Initial residual = 3.45713e-05, Final residual = 6.17508e-17, No Iterations 5
PIMPLE: iteration 2
DICPCG:  Solving for Vm, Initial residual = 1.27816e-16, Final residual = 1.27816e-16, No Iterations 0
ExecutionTime = 7.8 s  ClockTime = 8 s

Time = 0.0155593

DEBUG cell=0 t=0.0154191→0.0155593 step=0.000140174 V=-0.297996 u1=0.717427 u2=0.984815 u3=0 Iion=1.14764
DEBUG cell=0 t=0.0154191→0.0155593 step=0.00126157 V=-0.297996 u1=0.717546 u2=0.984679 u3=0 Iion=1.14768
PIMPLE: iteration 1
DICPCG:  Solving for Vm, Initial residual = 3.45666e-05, Final residual = 6.17422e-17, No Iterations 5
PIMPLE: iteration 2
DICPCG:  Solving for Vm, Initial residual = 1.27669e-16, Final residual = 1.27669e-16, No Iterations 0
ExecutionTime = 7.87 s  ClockTime = 8 s

Time = 0.0156995

DEBUG cell=0 t=0.0155593→0.0156995 step=0.000140174 V=-0.298017 u1=0.717546 u2=0.984679 u3=0 Iion=1.14768
DEBUG cell=0 t=0.0155593→0.0156995 step=0.00126157 V=-0.298017 u1=0.717666 u2=0.984543 u3=0 Iion=1.14772
PIMPLE: iteration 1
DICPCG:  Solving for Vm, Initial residual = 3.45618e-05, Final residual = 6.17337e-17, No Iterations 5
PIMPLE: iteration 2
DICPCG:  Solving for Vm, Initial residual = 1.27727e-16, Final residual = 1.27727e-16, No Iterations 0
ExecutionTime = 7.94 s  ClockTime = 8 s

Time = 0.0158397

DEBUG cell=0 t=0.0156995→0.0158397 step=0.000140174 V=-0.298037 u1=0.717666 u2=0.984543 u3=0 Iion=1.14772
DEBUG cell=0 t=0.0156995→0.0158397 step=0.00126157 V=-0.298037 u1=0.717786 u2=0.984407 u3=0 Iion=1.14776
PIMPLE: iteration 1
DICPCG:  Solving for Vm, Initial residual = 3.45571e-05, Final residual = 6.17252e-17, No Iterations 5
PIMPLE: iteration 2
DICPCG:  Solving for Vm, Initial residual = 1.27486e-16, Final residual = 1.27486e-16, No Iterations 0
ExecutionTime = 8.01 s  ClockTime = 8 s

Time = 0.0159798

DEBUG cell=0 t=0.0158397→0.0159798 step=0.000140174 V=-0.298058 u1=0.717786 u2=0.984407 u3=0 Iion=1.14776
DEBUG cell=0 t=0.0158397→0.0159798 step=0.00126157 V=-0.298058 u1=0.717905 u2=0.984272 u3=0 Iion=1.1478
PIMPLE: iteration 1
DICPCG:  Solving for Vm, Initial residual = 3.45523e-05, Final residual = 6.17167e-17, No Iterations 5
PIMPLE: iteration 2
DICPCG:  Solving for Vm, Initial residual = 1.2753e-16, Final residual = 1.2753e-16, No Iterations 0
ExecutionTime = 8.07 s  ClockTime = 9 s

Time = 0.01612

DEBUG cell=0 t=0.0159798→0.01612 step=0.000140174 V=-0.298078 u1=0.717905 u2=0.984272 u3=0 Iion=1.1478
DEBUG cell=0 t=0.0159798→0.01612 step=0.00126157 V=-0.298078 u1=0.718025 u2=0.984136 u3=0 Iion=1.14784
PIMPLE: iteration 1
DICPCG:  Solving for Vm, Initial residual = 3.45475e-05, Final residual = 6.17082e-17, No Iterations 5
PIMPLE: iteration 2
DICPCG:  Solving for Vm, Initial residual = 1.27538e-16, Final residual = 1.27538e-16, No Iterations 0
ExecutionTime = 8.14 s  ClockTime = 9 s

Time = 0.0162602

DEBUG cell=0 t=0.01612→0.0162602 step=0.000140174 V=-0.298099 u1=0.718025 u2=0.984136 u3=0 Iion=1.14784
DEBUG cell=0 t=0.01612→0.0162602 step=0.00126157 V=-0.298099 u1=0.718144 u2=0.984 u3=0 Iion=1.14788
PIMPLE: iteration 1
DICPCG:  Solving for Vm, Initial residual = 3.45428e-05, Final residual = 6.16998e-17, No Iterations 5
PIMPLE: iteration 2
DICPCG:  Solving for Vm, Initial residual = 1.27471e-16, Final residual = 1.27471e-16, No Iterations 0
ExecutionTime = 8.21 s  ClockTime = 9 s

Time = 0.0164004

DEBUG cell=0 t=0.0162602→0.0164004 step=0.000140174 V=-0.29812 u1=0.718144 u2=0.984 u3=0 Iion=1.14788
DEBUG cell=0 t=0.0162602→0.0164004 step=0.00126157 V=-0.29812 u1=0.718264 u2=0.983864 u3=0 Iion=1.14791
PIMPLE: iteration 1
DICPCG:  Solving for Vm, Initial residual = 3.4538e-05, Final residual = 6.16913e-17, No Iterations 5
PIMPLE: iteration 2
DICPCG:  Solving for Vm, Initial residual = 1.275e-16, Final residual = 1.275e-16, No Iterations 0
ExecutionTime = 8.28 s  ClockTime = 9 s

Time = 0.0165405

DEBUG cell=0 t=0.0164004→0.0165405 step=0.000140174 V=-0.29814 u1=0.718264 u2=0.983864 u3=0 Iion=1.14791
DEBUG cell=0 t=0.0164004→0.0165405 step=0.00126157 V=-0.29814 u1=0.718384 u2=0.983729 u3=0 Iion=1.14795
PIMPLE: iteration 1
DICPCG:  Solving for Vm, Initial residual = 3.45333e-05, Final residual = 6.16828e-17, No Iterations 5
PIMPLE: iteration 2
DICPCG:  Solving for Vm, Initial residual = 1.2754e-16, Final residual = 1.2754e-16, No Iterations 0
ExecutionTime = 8.34 s  ClockTime = 9 s

Time = 0.0166807

DEBUG cell=0 t=0.0165405→0.0166807 step=0.000140174 V=-0.298161 u1=0.718384 u2=0.983729 u3=0 Iion=1.14795
DEBUG cell=0 t=0.0165405→0.0166807 step=0.00126157 V=-0.298161 u1=0.718503 u2=0.983593 u3=0 Iion=1.14799
PIMPLE: iteration 1
DICPCG:  Solving for Vm, Initial residual = 3.45285e-05, Final residual = 6.16743e-17, No Iterations 5
PIMPLE: iteration 2
DICPCG:  Solving for Vm, Initial residual = 1.27467e-16, Final residual = 1.27467e-16, No Iterations 0
ExecutionTime = 8.41 s  ClockTime = 9 s

Time = 0.0168209

DEBUG cell=0 t=0.0166807→0.0168209 step=0.000140174 V=-0.298181 u1=0.718503 u2=0.983593 u3=0 Iion=1.14799
DEBUG cell=0 t=0.0166807→0.0168209 step=0.00126157 V=-0.298181 u1=0.718623 u2=0.983457 u3=0 Iion=1.14803
PIMPLE: iteration 1
DICPCG:  Solving for Vm, Initial residual = 3.45238e-05, Final residual = 6.16658e-17, No Iterations 5
PIMPLE: iteration 2
DICPCG:  Solving for Vm, Initial residual = 1.27452e-16, Final residual = 1.27452e-16, No Iterations 0
ExecutionTime = 8.48 s  ClockTime = 9 s

Time = 0.0169611

DEBUG cell=0 t=0.0168209→0.0169611 step=0.000140174 V=-0.298202 u1=0.718623 u2=0.983457 u3=0 Iion=1.14803
DEBUG cell=0 t=0.0168209→0.0169611 step=0.00126157 V=-0.298202 u1=0.718742 u2=0.983322 u3=0 Iion=1.14807
PIMPLE: iteration 1
DICPCG:  Solving for Vm, Initial residual = 3.4519e-05, Final residual = 6.16573e-17, No Iterations 5
PIMPLE: iteration 2
DICPCG:  Solving for Vm, Initial residual = 1.27685e-16, Final residual = 1.27685e-16, No Iterations 0
ExecutionTime = 8.55 s  ClockTime = 9 s

Time = 0.0171012

DEBUG cell=0 t=0.0169611→0.0171012 step=0.000140174 V=-0.298223 u1=0.718742 u2=0.983322 u3=0 Iion=1.14807
DEBUG cell=0 t=0.0169611→0.0171012 step=0.00126157 V=-0.298223 u1=0.718862 u2=0.983186 u3=0 Iion=1.14811
PIMPLE: iteration 1
DICPCG:  Solving for Vm, Initial residual = 3.45143e-05, Final residual = 6.16488e-17, No Iterations 5
PIMPLE: iteration 2
DICPCG:  Solving for Vm, Initial residual = 1.27703e-16, Final residual = 1.27703e-16, No Iterations 0
ExecutionTime = 8.62 s  ClockTime = 9 s

Time = 0.0172414

DEBUG cell=0 t=0.0171012→0.0172414 step=0.000140174 V=-0.298243 u1=0.718862 u2=0.983186 u3=0 Iion=1.14811
DEBUG cell=0 t=0.0171012→0.0172414 step=0.00126157 V=-0.298243 u1=0.718982 u2=0.983051 u3=0 Iion=1.14815
PIMPLE: iteration 1
DICPCG:  Solving for Vm, Initial residual = 3.45095e-05, Final residual = 6.16404e-17, No Iterations 5
PIMPLE: iteration 2
DICPCG:  Solving for Vm, Initial residual = 1.27684e-16, Final residual = 1.27684e-16, No Iterations 0
ExecutionTime = 8.67 s  ClockTime = 9 s

Time = 0.0173816

DEBUG cell=0 t=0.0172414→0.0173816 step=0.000140174 V=-0.298264 u1=0.718982 u2=0.983051 u3=0 Iion=1.14815
DEBUG cell=0 t=0.0172414→0.0173816 step=0.00126157 V=-0.298264 u1=0.719101 u2=0.982916 u3=0 Iion=1.14819
PIMPLE: iteration 1
DICPCG:  Solving for Vm, Initial residual = 3.45048e-05, Final residual = 6.16319e-17, No Iterations 5
PIMPLE: iteration 2
DICPCG:  Solving for Vm, Initial residual = 1.27421e-16, Final residual = 1.27421e-16, No Iterations 0
ExecutionTime = 8.74 s  ClockTime = 9 s

Time = 0.0175217

DEBUG cell=0 t=0.0173816→0.0175217 step=0.000140174 V=-0.298284 u1=0.719101 u2=0.982916 u3=0 Iion=1.14819
DEBUG cell=0 t=0.0173816→0.0175217 step=0.00126157 V=-0.298284 u1=0.719221 u2=0.98278 u3=0 Iion=1.14822
PIMPLE: iteration 1
DICPCG:  Solving for Vm, Initial residual = 3.45e-05, Final residual = 6.16234e-17, No Iterations 5
PIMPLE: iteration 2
DICPCG:  Solving for Vm, Initial residual = 1.27375e-16, Final residual = 1.27375e-16, No Iterations 0
ExecutionTime = 8.81 s  ClockTime = 9 s

Time = 0.0176619

DEBUG cell=0 t=0.0175217→0.0176619 step=0.000140174 V=-0.298305 u1=0.719221 u2=0.98278 u3=0 Iion=1.14822
DEBUG cell=0 t=0.0175217→0.0176619 step=0.00126157 V=-0.298305 u1=0.719341 u2=0.982645 u3=0 Iion=1.14826
PIMPLE: iteration 1
DICPCG:  Solving for Vm, Initial residual = 3.44953e-05, Final residual = 6.16149e-17, No Iterations 5
PIMPLE: iteration 2
DICPCG:  Solving for Vm, Initial residual = 1.2741e-16, Final residual = 1.2741e-16, No Iterations 0
ExecutionTime = 8.88 s  ClockTime = 9 s

Time = 0.0178021

DEBUG cell=0 t=0.0176619→0.0178021 step=0.000140174 V=-0.298325 u1=0.719341 u2=0.982645 u3=0 Iion=1.14826
DEBUG cell=0 t=0.0176619→0.0178021 step=0.00126157 V=-0.298325 u1=0.71946 u2=0.982509 u3=0 Iion=1.1483
PIMPLE: iteration 1
DICPCG:  Solving for Vm, Initial residual = 3.44906e-05, Final residual = 6.16065e-17, No Iterations 5
PIMPLE: iteration 2
DICPCG:  Solving for Vm, Initial residual = 1.27454e-16, Final residual = 1.27454e-16, No Iterations 0
ExecutionTime = 8.95 s  ClockTime = 9 s

Time = 0.0179423

DEBUG cell=0 t=0.0178021→0.0179423 step=0.000140174 V=-0.298346 u1=0.71946 u2=0.982509 u3=0 Iion=1.1483
DEBUG cell=0 t=0.0178021→0.0179423 step=0.00126157 V=-0.298346 u1=0.71958 u2=0.982374 u3=0 Iion=1.14834
PIMPLE: iteration 1
DICPCG:  Solving for Vm, Initial residual = 3.44858e-05, Final residual = 6.1598e-17, No Iterations 5
PIMPLE: iteration 2
DICPCG:  Solving for Vm, Initial residual = 1.27347e-16, Final residual = 1.27347e-16, No Iterations 0
ExecutionTime = 9.02 s  ClockTime = 9 s

Time = 0.0180824

DEBUG cell=0 t=0.0179423→0.0180824 step=0.000140174 V=-0.298367 u1=0.71958 u2=0.982374 u3=0 Iion=1.14834
DEBUG cell=0 t=0.0179423→0.0180824 step=0.00126157 V=-0.298367 u1=0.719699 u2=0.982239 u3=0 Iion=1.14838
PIMPLE: iteration 1
DICPCG:  Solving for Vm, Initial residual = 3.44811e-05, Final residual = 6.15895e-17, No Iterations 5
PIMPLE: iteration 2
DICPCG:  Solving for Vm, Initial residual = 1.27574e-16, Final residual = 1.27574e-16, No Iterations 0
ExecutionTime = 9.08 s  ClockTime = 10 s

Time = 0.0182226

DEBUG cell=0 t=0.0180824→0.0182226 step=0.000140174 V=-0.298387 u1=0.719699 u2=0.982239 u3=0 Iion=1.14838
DEBUG cell=0 t=0.0180824→0.0182226 step=0.00126157 V=-0.298387 u1=0.719819 u2=0.982104 u3=0 Iion=1.14842
PIMPLE: iteration 1
DICPCG:  Solving for Vm, Initial residual = 3.44763e-05, Final residual = 6.15811e-17, No Iterations 5
PIMPLE: iteration 2
DICPCG:  Solving for Vm, Initial residual = 1.27528e-16, Final residual = 1.27528e-16, No Iterations 0
ExecutionTime = 9.15 s  ClockTime = 10 s

Time = 0.0183628

DEBUG cell=0 t=0.0182226→0.0183628 step=0.000140174 V=-0.298408 u1=0.719819 u2=0.982104 u3=0 Iion=1.14842
DEBUG cell=0 t=0.0182226→0.0183628 step=0.00126157 V=-0.298408 u1=0.719939 u2=0.981968 u3=0 Iion=1.14846
PIMPLE: iteration 1
DICPCG:  Solving for Vm, Initial residual = 3.44716e-05, Final residual = 6.15726e-17, No Iterations 5
PIMPLE: iteration 2
DICPCG:  Solving for Vm, Initial residual = 1.27734e-16, Final residual = 1.27734e-16, No Iterations 0
ExecutionTime = 9.22 s  ClockTime = 10 s

Time = 0.018503

DEBUG cell=0 t=0.0183628→0.018503 step=0.000140174 V=-0.298428 u1=0.719939 u2=0.981968 u3=0 Iion=1.14846
DEBUG cell=0 t=0.0183628→0.018503 step=0.00126157 V=-0.298428 u1=0.720058 u2=0.981833 u3=0 Iion=1.1485
PIMPLE: iteration 1
DICPCG:  Solving for Vm, Initial residual = 3.44669e-05, Final residual = 6.15642e-17, No Iterations 5
PIMPLE: iteration 2
DICPCG:  Solving for Vm, Initial residual = 1.27445e-16, Final residual = 1.27445e-16, No Iterations 0
ExecutionTime = 9.28 s  ClockTime = 10 s

Time = 0.0186431

DEBUG cell=0 t=0.018503→0.0186431 step=0.000140174 V=-0.298449 u1=0.720058 u2=0.981833 u3=0 Iion=1.1485
DEBUG cell=0 t=0.018503→0.0186431 step=0.00126157 V=-0.298449 u1=0.720178 u2=0.981698 u3=0 Iion=1.14854
PIMPLE: iteration 1
DICPCG:  Solving for Vm, Initial residual = 3.44621e-05, Final residual = 6.15557e-17, No Iterations 5
PIMPLE: iteration 2
DICPCG:  Solving for Vm, Initial residual = 1.27466e-16, Final residual = 1.27466e-16, No Iterations 0
ExecutionTime = 9.35 s  ClockTime = 10 s

Time = 0.0187833

DEBUG cell=0 t=0.0186431→0.0187833 step=0.000140174 V=-0.29847 u1=0.720178 u2=0.981698 u3=0 Iion=1.14854
DEBUG cell=0 t=0.0186431→0.0187833 step=0.00126157 V=-0.29847 u1=0.720298 u2=0.981563 u3=0 Iion=1.14857
PIMPLE: iteration 1
DICPCG:  Solving for Vm, Initial residual = 3.44574e-05, Final residual = 6.15473e-17, No Iterations 5
PIMPLE: iteration 2
DICPCG:  Solving for Vm, Initial residual = 1.27424e-16, Final residual = 1.27424e-16, No Iterations 0
ExecutionTime = 9.41 s  ClockTime = 10 s

Time = 0.0189235

DEBUG cell=0 t=0.0187833→0.0189235 step=0.000140174 V=-0.29849 u1=0.720298 u2=0.981563 u3=0 Iion=1.14857
DEBUG cell=0 t=0.0187833→0.0189235 step=0.00126157 V=-0.29849 u1=0.720417 u2=0.981428 u3=0 Iion=1.14861
PIMPLE: iteration 1
DICPCG:  Solving for Vm, Initial residual = 3.44527e-05, Final residual = 6.15388e-17, No Iterations 5
PIMPLE: iteration 2
DICPCG:  Solving for Vm, Initial residual = 1.27333e-16, Final residual = 1.27333e-16, No Iterations 0
ExecutionTime = 9.48 s  ClockTime = 10 s

Time = 0.0190637

DEBUG cell=0 t=0.0189235→0.0190637 step=0.000140174 V=-0.298511 u1=0.720417 u2=0.981428 u3=0 Iion=1.14861
DEBUG cell=0 t=0.0189235→0.0190637 step=0.00126157 V=-0.298511 u1=0.720537 u2=0.981293 u3=0 Iion=1.14865
PIMPLE: iteration 1
DICPCG:  Solving for Vm, Initial residual = 3.44479e-05, Final residual = 6.15304e-17, No Iterations 5
PIMPLE: iteration 2
DICPCG:  Solving for Vm, Initial residual = 1.27418e-16, Final residual = 1.27418e-16, No Iterations 0
ExecutionTime = 9.55 s  ClockTime = 10 s

Time = 0.0192038

DEBUG cell=0 t=0.0190637→0.0192038 step=0.000140174 V=-0.298531 u1=0.720537 u2=0.981293 u3=0 Iion=1.14865
DEBUG cell=0 t=0.0190637→0.0192038 step=0.00126157 V=-0.298531 u1=0.720657 u2=0.981158 u3=0 Iion=1.14869
PIMPLE: iteration 1
DICPCG:  Solving for Vm, Initial residual = 3.44432e-05, Final residual = 6.15219e-17, No Iterations 5
PIMPLE: iteration 2
DICPCG:  Solving for Vm, Initial residual = 1.27298e-16, Final residual = 1.27298e-16, No Iterations 0
ExecutionTime = 9.61 s  ClockTime = 10 s

Time = 0.019344

DEBUG cell=0 t=0.0192038→0.019344 step=0.000140174 V=-0.298552 u1=0.720657 u2=0.981158 u3=0 Iion=1.14869
DEBUG cell=0 t=0.0192038→0.019344 step=0.00126157 V=-0.298552 u1=0.720776 u2=0.981023 u3=0 Iion=1.14873
PIMPLE: iteration 1
DICPCG:  Solving for Vm, Initial residual = 3.44385e-05, Final residual = 6.15135e-17, No Iterations 5
PIMPLE: iteration 2
DICPCG:  Solving for Vm, Initial residual = 1.27381e-16, Final residual = 1.27381e-16, No Iterations 0
ExecutionTime = 9.67 s  ClockTime = 10 s

Time = 0.0194842

DEBUG cell=0 t=0.019344→0.0194842 step=0.000140174 V=-0.298572 u1=0.720776 u2=0.981023 u3=0 Iion=1.14873
DEBUG cell=0 t=0.019344→0.0194842 step=0.00126157 V=-0.298572 u1=0.720896 u2=0.980888 u3=0 Iion=1.14877
PIMPLE: iteration 1
DICPCG:  Solving for Vm, Initial residual = 3.44338e-05, Final residual = 6.1505e-17, No Iterations 5
PIMPLE: iteration 2
DICPCG:  Solving for Vm, Initial residual = 1.2738e-16, Final residual = 1.2738e-16, No Iterations 0
ExecutionTime = 9.74 s  ClockTime = 10 s

Time = 0.0196244

DEBUG cell=0 t=0.0194842→0.0196244 step=0.000140174 V=-0.298593 u1=0.720896 u2=0.980888 u3=0 Iion=1.14877
DEBUG cell=0 t=0.0194842→0.0196244 step=0.00126157 V=-0.298593 u1=0.721015 u2=0.980753 u3=0 Iion=1.14881
PIMPLE: iteration 1
DICPCG:  Solving for Vm, Initial residual = 3.4429e-05, Final residual = 6.14966e-17, No Iterations 5
PIMPLE: iteration 2
DICPCG:  Solving for Vm, Initial residual = 1.27525e-16, Final residual = 1.27525e-16, No Iterations 0
ExecutionTime = 9.81 s  ClockTime = 10 s

Time = 0.0197645

DEBUG cell=0 t=0.0196244→0.0197645 step=0.000140174 V=-0.298613 u1=0.721015 u2=0.980753 u3=0 Iion=1.14881
DEBUG cell=0 t=0.0196244→0.0197645 step=0.00126157 V=-0.298613 u1=0.721135 u2=0.980619 u3=0 Iion=1.14885
PIMPLE: iteration 1
DICPCG:  Solving for Vm, Initial residual = 3.44243e-05, Final residual = 6.14882e-17, No Iterations 5
PIMPLE: iteration 2
DICPCG:  Solving for Vm, Initial residual = 1.27309e-16, Final residual = 1.27309e-16, No Iterations 0
ExecutionTime = 9.88 s  ClockTime = 10 s

Time = 0.0199047

DEBUG cell=0 t=0.0197645→0.0199047 step=0.000140174 V=-0.298634 u1=0.721135 u2=0.980619 u3=0 Iion=1.14885
DEBUG cell=0 t=0.0197645→0.0199047 step=0.00126157 V=-0.298634 u1=0.721255 u2=0.980484 u3=0 Iion=1.14889
PIMPLE: iteration 1
DICPCG:  Solving for Vm, Initial residual = 3.44196e-05, Final residual = 6.14797e-17, No Iterations 5
PIMPLE: iteration 2
DICPCG:  Solving for Vm, Initial residual = 1.27493e-16, Final residual = 1.27493e-16, No Iterations 0
ExecutionTime = 9.95 s  ClockTime = 10 s

Time = 0.0200449

DEBUG cell=0 t=0.0199047→0.0200449 step=0.000140174 V=-0.298655 u1=0.721255 u2=0.980484 u3=0 Iion=1.14889
DEBUG cell=0 t=0.0199047→0.0200449 step=0.00126157 V=-0.298655 u1=0.721374 u2=0.980349 u3=0 Iion=1.14892
PIMPLE: iteration 1
DICPCG:  Solving for Vm, Initial residual = 3.44149e-05, Final residual = 6.14713e-17, No Iterations 5
PIMPLE: iteration 2
DICPCG:  Solving for Vm, Initial residual = 1.27225e-16, Final residual = 1.27225e-16, No Iterations 0
ExecutionTime = 10.02 s  ClockTime = 10 s

Time = 0.0201851

DEBUG cell=0 t=0.0200449→0.0201851 step=0.000140174 V=-0.298675 u1=0.721374 u2=0.980349 u3=0 Iion=1.14892
DEBUG cell=0 t=0.0200449→0.0201851 step=0.00126157 V=-0.298675 u1=0.721494 u2=0.980214 u3=0 Iion=1.14896
PIMPLE: iteration 1
DICPCG:  Solving for Vm, Initial residual = 3.44101e-05, Final residual = 6.14629e-17, No Iterations 5
PIMPLE: iteration 2
DICPCG:  Solving for Vm, Initial residual = 1.27578e-16, Final residual = 1.27578e-16, No Iterations 0
ExecutionTime = 10.07 s  ClockTime = 11 s

Time = 0.0203252

DEBUG cell=0 t=0.0201851→0.0203252 step=0.000140174 V=-0.298696 u1=0.721494 u2=0.980214 u3=0 Iion=1.14896
DEBUG cell=0 t=0.0201851→0.0203252 step=0.00126157 V=-0.298696 u1=0.721614 u2=0.98008 u3=0 Iion=1.149
PIMPLE: iteration 1
DICPCG:  Solving for Vm, Initial residual = 3.44054e-05, Final residual = 6.14544e-17, No Iterations 5
PIMPLE: iteration 2
DICPCG:  Solving for Vm, Initial residual = 1.27239e-16, Final residual = 1.27239e-16, No Iterations 0
ExecutionTime = 10.14 s  ClockTime = 11 s

Time = 0.0204654

DEBUG cell=0 t=0.0203252→0.0204654 step=0.000140174 V=-0.298716 u1=0.721614 u2=0.98008 u3=0 Iion=1.149
DEBUG cell=0 t=0.0203252→0.0204654 step=0.00126157 V=-0.298716 u1=0.721733 u2=0.979945 u3=0 Iion=1.14904
PIMPLE: iteration 1
DICPCG:  Solving for Vm, Initial residual = 3.44007e-05, Final residual = 6.1446e-17, No Iterations 5
PIMPLE: iteration 2
DICPCG:  Solving for Vm, Initial residual = 1.27355e-16, Final residual = 1.27355e-16, No Iterations 0
ExecutionTime = 10.21 s  ClockTime = 11 s

Time = 0.0206056

DEBUG cell=0 t=0.0204654→0.0206056 step=0.000140174 V=-0.298737 u1=0.721733 u2=0.979945 u3=0 Iion=1.14904
DEBUG cell=0 t=0.0204654→0.0206056 step=0.00126157 V=-0.298737 u1=0.721853 u2=0.979811 u3=0 Iion=1.14908
PIMPLE: iteration 1
DICPCG:  Solving for Vm, Initial residual = 3.4396e-05, Final residual = 6.14376e-17, No Iterations 5
PIMPLE: iteration 2
DICPCG:  Solving for Vm, Initial residual = 1.27316e-16, Final residual = 1.27316e-16, No Iterations 0
ExecutionTime = 10.28 s  ClockTime = 11 s

Time = 0.0207458

DEBUG cell=0 t=0.0206056→0.0207458 step=0.000140174 V=-0.298757 u1=0.721853 u2=0.979811 u3=0 Iion=1.14908
DEBUG cell=0 t=0.0206056→0.0207458 step=0.00126157 V=-0.298757 u1=0.721973 u2=0.979676 u3=0 Iion=1.14912
PIMPLE: iteration 1
DICPCG:  Solving for Vm, Initial residual = 3.43913e-05, Final residual = 6.14292e-17, No Iterations 5
PIMPLE: iteration 2
DICPCG:  Solving for Vm, Initial residual = 1.27205e-16, Final residual = 1.27205e-16, No Iterations 0
ExecutionTime = 10.35 s  ClockTime = 11 s

Time = 0.0208859

DEBUG cell=0 t=0.0207458→0.0208859 step=0.000140174 V=-0.298778 u1=0.721973 u2=0.979676 u3=0 Iion=1.14912
DEBUG cell=0 t=0.0207458→0.0208859 step=0.00126157 V=-0.298778 u1=0.722092 u2=0.979542 u3=0 Iion=1.14916
PIMPLE: iteration 1
DICPCG:  Solving for Vm, Initial residual = 3.43866e-05, Final residual = 6.14207e-17, No Iterations 5
PIMPLE: iteration 2
[...]
DEBUG cell=0 t=0.194702→0.194842 step=0.00126157 V=-0.323283 u1=0.871596 u2=0.836929 u3=0 Iion=1.19732
PIMPLE: iteration 1
DICPCG:  Solving for Vm, Initial residual = 2.939e-05, Final residual = 5.24964e-17, No Iterations 5
PIMPLE: iteration 2
DICPCG:  Solving for Vm, Initial residual = 1.20042e-16, Final residual = 1.20042e-16, No Iterations 0
ExecutionTime = 93.99 s  ClockTime = 95 s

Time = 0.194982

DEBUG cell=0 t=0.194842→0.194982 step=0.000140174 V=-0.323302 u1=0.871596 u2=0.836929 u3=0 Iion=1.19732
DEBUG cell=0 t=0.194842→0.194982 step=0.00126157 V=-0.323302 u1=0.871717 u2=0.836831 u3=0 Iion=1.19736
PIMPLE: iteration 1
DICPCG:  Solving for Vm, Initial residual = 2.93865e-05, Final residual = 5.24903e-17, No Iterations 5
PIMPLE: iteration 2
DICPCG:  Solving for Vm, Initial residual = 1.20291e-16, Final residual = 1.20291e-16, No Iterations 0
ExecutionTime = 94.06 s  ClockTime = 95 s

Time = 0.195122

DEBUG cell=0 t=0.194982→0.195122 step=0.000140174 V=-0.323321 u1=0.871717 u2=0.836831 u3=0 Iion=1.19736
DEBUG cell=0 t=0.194982→0.195122 step=0.00126157 V=-0.323321 u1=0.871839 u2=0.836733 u3=0 Iion=1.19739
PIMPLE: iteration 1
DICPCG:  Solving for Vm, Initial residual = 2.93831e-05, Final residual = 5.24841e-17, No Iterations 5
PIMPLE: iteration 2
DICPCG:  Solving for Vm, Initial residual = 1.20155e-16, Final residual = 1.20155e-16, No Iterations 0
ExecutionTime = 94.12 s  ClockTime = 95 s

Time = 0.195262

DEBUG cell=0 t=0.195122→0.195262 step=0.000140174 V=-0.32334 u1=0.871839 u2=0.836733 u3=0 Iion=1.19739
DEBUG cell=0 t=0.195122→0.195262 step=0.00126157 V=-0.32334 u1=0.87196 u2=0.836635 u3=0 Iion=1.19743
PIMPLE: iteration 1
DICPCG:  Solving for Vm, Initial residual = 2.93797e-05, Final residual = 5.2478e-17, No Iterations 5
PIMPLE: iteration 2
DICPCG:  Solving for Vm, Initial residual = 1.20407e-16, Final residual = 1.20407e-16, No Iterations 0
ExecutionTime = 94.19 s  ClockTime = 95 s

Time = 0.195403

DEBUG cell=0 t=0.195262→0.195403 step=0.000140174 V=-0.323359 u1=0.87196 u2=0.836635 u3=0 Iion=1.19743
DEBUG cell=0 t=0.195262→0.195403 step=0.00126157 V=-0.323359 u1=0.872081 u2=0.836536 u3=0 Iion=1.19747
PIMPLE: iteration 1
DICPCG:  Solving for Vm, Initial residual = 2.93762e-05, Final residual = 5.24718e-17, No Iterations 5
PIMPLE: iteration 2
DICPCG:  Solving for Vm, Initial residual = 1.2016e-16, Final residual = 1.2016e-16, No Iterations 0
ExecutionTime = 94.26 s  ClockTime = 95 s

Time = 0.195543

DEBUG cell=0 t=0.195403→0.195543 step=0.000140174 V=-0.323378 u1=0.872081 u2=0.836536 u3=0 Iion=1.19747
DEBUG cell=0 t=0.195403→0.195543 step=0.00126157 V=-0.323378 u1=0.872202 u2=0.836438 u3=0 Iion=1.19751
PIMPLE: iteration 1
DICPCG:  Solving for Vm, Initial residual = 2.93728e-05, Final residual = 5.24657e-17, No Iterations 5
PIMPLE: iteration 2
DICPCG:  Solving for Vm, Initial residual = 1.2005e-16, Final residual = 1.2005e-16, No Iterations 0
ExecutionTime = 94.33 s  ClockTime = 95 s

Time = 0.195683

DEBUG cell=0 t=0.195543→0.195683 step=0.000140174 V=-0.323397 u1=0.872202 u2=0.836438 u3=0 Iion=1.19751
DEBUG cell=0 t=0.195543→0.195683 step=0.00126157 V=-0.323397 u1=0.872324 u2=0.83634 u3=0 Iion=1.19755
PIMPLE: iteration 1
DICPCG:  Solving for Vm, Initial residual = 2.93694e-05, Final residual = 5.24596e-17, No Iterations 5
PIMPLE: iteration 2
DICPCG:  Solving for Vm, Initial residual = 1.20111e-16, Final residual = 1.20111e-16, No Iterations 0
ExecutionTime = 94.4 s  ClockTime = 95 s

Time = 0.195823

DEBUG cell=0 t=0.195683→0.195823 step=0.000140174 V=-0.323416 u1=0.872324 u2=0.83634 u3=0 Iion=1.19755
DEBUG cell=0 t=0.195683→0.195823 step=0.00126157 V=-0.323416 u1=0.872445 u2=0.836242 u3=0 Iion=1.19759
PIMPLE: iteration 1
DICPCG:  Solving for Vm, Initial residual = 2.93659e-05, Final residual = 5.24534e-17, No Iterations 5
PIMPLE: iteration 2
DICPCG:  Solving for Vm, Initial residual = 1.1987e-16, Final residual = 1.1987e-16, No Iterations 0
ExecutionTime = 94.48 s  ClockTime = 95 s

Time = 0.195963

DEBUG cell=0 t=0.195823→0.195963 step=0.000140174 V=-0.323435 u1=0.872445 u2=0.836242 u3=0 Iion=1.19759
DEBUG cell=0 t=0.195823→0.195963 step=0.00126157 V=-0.323435 u1=0.872566 u2=0.836144 u3=0 Iion=1.19763
PIMPLE: iteration 1
DICPCG:  Solving for Vm, Initial residual = 2.93625e-05, Final residual = 5.24473e-17, No Iterations 5
PIMPLE: iteration 2
DICPCG:  Solving for Vm, Initial residual = 1.19772e-16, Final residual = 1.19772e-16, No Iterations 0
ExecutionTime = 94.54 s  ClockTime = 95 s

Time = 0.196103

DEBUG cell=0 t=0.195963→0.196103 step=0.000140174 V=-0.323454 u1=0.872566 u2=0.836144 u3=0 Iion=1.19763
DEBUG cell=0 t=0.195963→0.196103 step=0.00126157 V=-0.323454 u1=0.872687 u2=0.836046 u3=0 Iion=1.19766
PIMPLE: iteration 1
DICPCG:  Solving for Vm, Initial residual = 2.93591e-05, Final residual = 5.24412e-17, No Iterations 5
PIMPLE: iteration 2
DICPCG:  Solving for Vm, Initial residual = 1.20174e-16, Final residual = 1.20174e-16, No Iterations 0
ExecutionTime = 94.61 s  ClockTime = 95 s

Time = 0.196244

DEBUG cell=0 t=0.196103→0.196244 step=0.000140174 V=-0.323473 u1=0.872687 u2=0.836046 u3=0 Iion=1.19766
DEBUG cell=0 t=0.196103→0.196244 step=0.00126157 V=-0.323473 u1=0.872808 u2=0.835948 u3=0 Iion=1.1977
PIMPLE: iteration 1
DICPCG:  Solving for Vm, Initial residual = 2.93556e-05, Final residual = 5.2435e-17, No Iterations 5
PIMPLE: iteration 2
DICPCG:  Solving for Vm, Initial residual = 1.20004e-16, Final residual = 1.20004e-16, No Iterations 0
ExecutionTime = 94.68 s  ClockTime = 95 s

Time = 0.196384

DEBUG cell=0 t=0.196244→0.196384 step=0.000140174 V=-0.323492 u1=0.872808 u2=0.835948 u3=0 Iion=1.1977
DEBUG cell=0 t=0.196244→0.196384 step=0.00126157 V=-0.323492 u1=0.87293 u2=0.83585 u3=0 Iion=1.19774
PIMPLE: iteration 1
DICPCG:  Solving for Vm, Initial residual = 2.93522e-05, Final residual = 5.24289e-17, No Iterations 5
PIMPLE: iteration 2
DICPCG:  Solving for Vm, Initial residual = 1.20074e-16, Final residual = 1.20074e-16, No Iterations 0
ExecutionTime = 94.75 s  ClockTime = 95 s

Time = 0.196524

DEBUG cell=0 t=0.196384→0.196524 step=0.000140174 V=-0.323511 u1=0.87293 u2=0.83585 u3=0 Iion=1.19774
DEBUG cell=0 t=0.196384→0.196524 step=0.00126157 V=-0.323511 u1=0.873051 u2=0.835752 u3=0 Iion=1.19778
PIMPLE: iteration 1
DICPCG:  Solving for Vm, Initial residual = 2.93488e-05, Final residual = 5.24228e-17, No Iterations 5
PIMPLE: iteration 2
DICPCG:  Solving for Vm, Initial residual = 1.20094e-16, Final residual = 1.20094e-16, No Iterations 0
ExecutionTime = 94.81 s  ClockTime = 95 s

Time = 0.196664

DEBUG cell=0 t=0.196524→0.196664 step=0.000140174 V=-0.32353 u1=0.873051 u2=0.835752 u3=0 Iion=1.19778
DEBUG cell=0 t=0.196524→0.196664 step=0.00126157 V=-0.32353 u1=0.873172 u2=0.835654 u3=0 Iion=1.19782
PIMPLE: iteration 1
DICPCG:  Solving for Vm, Initial residual = 2.93453e-05, Final residual = 5.24167e-17, No Iterations 5
PIMPLE: iteration 2
DICPCG:  Solving for Vm, Initial residual = 1.20056e-16, Final residual = 1.20056e-16, No Iterations 0
ExecutionTime = 94.88 s  ClockTime = 95 s

Time = 0.196804

DEBUG cell=0 t=0.196664→0.196804 step=0.000140174 V=-0.323549 u1=0.873172 u2=0.835654 u3=0 Iion=1.19782
DEBUG cell=0 t=0.196664→0.196804 step=0.00126157 V=-0.323549 u1=0.873293 u2=0.835557 u3=0 Iion=1.19786
PIMPLE: iteration 1
DICPCG:  Solving for Vm, Initial residual = 2.93419e-05, Final residual = 5.24105e-17, No Iterations 5
PIMPLE: iteration 2
DICPCG:  Solving for Vm, Initial residual = 1.20091e-16, Final residual = 1.20091e-16, No Iterations 0
ExecutionTime = 94.95 s  ClockTime = 95 s

Time = 0.196944

DEBUG cell=0 t=0.196804→0.196944 step=0.000140174 V=-0.323568 u1=0.873293 u2=0.835557 u3=0 Iion=1.19786
DEBUG cell=0 t=0.196804→0.196944 step=0.00126157 V=-0.323568 u1=0.873415 u2=0.835459 u3=0 Iion=1.1979
PIMPLE: iteration 1
DICPCG:  Solving for Vm, Initial residual = 2.93385e-05, Final residual = 5.24044e-17, No Iterations 5
PIMPLE: iteration 2
DICPCG:  Solving for Vm, Initial residual = 1.20169e-16, Final residual = 1.20169e-16, No Iterations 0
ExecutionTime = 95.02 s  ClockTime = 96 s

Time = 0.197085

DEBUG cell=0 t=0.196944→0.197085 step=0.000140174 V=-0.323587 u1=0.873415 u2=0.835459 u3=0 Iion=1.1979
DEBUG cell=0 t=0.196944→0.197085 step=0.00126157 V=-0.323587 u1=0.873536 u2=0.835361 u3=0 Iion=1.19794
PIMPLE: iteration 1
DICPCG:  Solving for Vm, Initial residual = 2.9335e-05, Final residual = 5.23983e-17, No Iterations 5
PIMPLE: iteration 2
DICPCG:  Solving for Vm, Initial residual = 1.20056e-16, Final residual = 1.20056e-16, No Iterations 0
ExecutionTime = 95.09 s  ClockTime = 96 s

Time = 0.197225

DEBUG cell=0 t=0.197085→0.197225 step=0.000140174 V=-0.323606 u1=0.873536 u2=0.835361 u3=0 Iion=1.19794
DEBUG cell=0 t=0.197085→0.197225 step=0.00126157 V=-0.323606 u1=0.873657 u2=0.835263 u3=0 Iion=1.19797
PIMPLE: iteration 1
DICPCG:  Solving for Vm, Initial residual = 2.93316e-05, Final residual = 5.23922e-17, No Iterations 5
PIMPLE: iteration 2
DICPCG:  Solving for Vm, Initial residual = 1.20207e-16, Final residual = 1.20207e-16, No Iterations 0
ExecutionTime = 95.16 s  ClockTime = 96 s

Time = 0.197365

DEBUG cell=0 t=0.197225→0.197365 step=0.000140174 V=-0.323625 u1=0.873657 u2=0.835263 u3=0 Iion=1.19797
DEBUG cell=0 t=0.197225→0.197365 step=0.00126157 V=-0.323625 u1=0.873778 u2=0.835165 u3=0 Iion=1.19801
PIMPLE: iteration 1
DICPCG:  Solving for Vm, Initial residual = 2.93282e-05, Final residual = 5.2386e-17, No Iterations 5
PIMPLE: iteration 2
DICPCG:  Solving for Vm, Initial residual = 1.1979e-16, Final residual = 1.1979e-16, No Iterations 0
ExecutionTime = 95.23 s  ClockTime = 96 s

Time = 0.197505

DEBUG cell=0 t=0.197365→0.197505 step=0.000140174 V=-0.323644 u1=0.873778 u2=0.835165 u3=0 Iion=1.19801
DEBUG cell=0 t=0.197365→0.197505 step=0.00126157 V=-0.323644 u1=0.8739 u2=0.835068 u3=0 Iion=1.19805
PIMPLE: iteration 1
DICPCG:  Solving for Vm, Initial residual = 2.93248e-05, Final residual = 5.23799e-17, No Iterations 5
PIMPLE: iteration 2
DICPCG:  Solving for Vm, Initial residual = 1.19994e-16, Final residual = 1.19994e-16, No Iterations 0
ExecutionTime = 95.3 s  ClockTime = 96 s

Time = 0.197645

DEBUG cell=0 t=0.197505→0.197645 step=0.000140174 V=-0.323663 u1=0.8739 u2=0.835068 u3=0 Iion=1.19805
DEBUG cell=0 t=0.197505→0.197645 step=0.00126157 V=-0.323663 u1=0.874021 u2=0.83497 u3=0 Iion=1.19809
PIMPLE: iteration 1
DICPCG:  Solving for Vm, Initial residual = 2.93213e-05, Final residual = 5.23738e-17, No Iterations 5
PIMPLE: iteration 2
DICPCG:  Solving for Vm, Initial residual = 1.20276e-16, Final residual = 1.20276e-16, No Iterations 0
ExecutionTime = 95.37 s  ClockTime = 96 s

Time = 0.197786

DEBUG cell=0 t=0.197645→0.197786 step=0.000140174 V=-0.323682 u1=0.874021 u2=0.83497 u3=0 Iion=1.19809
DEBUG cell=0 t=0.197645→0.197786 step=0.00126157 V=-0.323682 u1=0.874142 u2=0.834872 u3=0 Iion=1.19813
PIMPLE: iteration 1
DICPCG:  Solving for Vm, Initial residual = 2.93179e-05, Final residual = 5.23677e-17, No Iterations 5
PIMPLE: iteration 2
DICPCG:  Solving for Vm, Initial residual = 1.19877e-16, Final residual = 1.19877e-16, No Iterations 0
ExecutionTime = 95.43 s  ClockTime = 96 s

Time = 0.197926

DEBUG cell=0 t=0.197786→0.197926 step=0.000140174 V=-0.323701 u1=0.874142 u2=0.834872 u3=0 Iion=1.19813
DEBUG cell=0 t=0.197786→0.197926 step=0.00126157 V=-0.323701 u1=0.874263 u2=0.834774 u3=0 Iion=1.19817
PIMPLE: iteration 1
DICPCG:  Solving for Vm, Initial residual = 2.93145e-05, Final residual = 5.23616e-17, No Iterations 5
PIMPLE: iteration 2
DICPCG:  Solving for Vm, Initial residual = 1.20021e-16, Final residual = 1.20021e-16, No Iterations 0
ExecutionTime = 95.5 s  ClockTime = 96 s

Time = 0.198066

DEBUG cell=0 t=0.197926→0.198066 step=0.000140174 V=-0.32372 u1=0.874263 u2=0.834774 u3=0 Iion=1.19817
DEBUG cell=0 t=0.197926→0.198066 step=0.00126157 V=-0.32372 u1=0.874385 u2=0.834677 u3=0 Iion=1.19821
PIMPLE: iteration 1
DICPCG:  Solving for Vm, Initial residual = 2.93111e-05, Final residual = 5.23555e-17, No Iterations 5
PIMPLE: iteration 2
DICPCG:  Solving for Vm, Initial residual = 1.20239e-16, Final residual = 1.20239e-16, No Iterations 0
ExecutionTime = 95.57 s  ClockTime = 96 s

Time = 0.198206

DEBUG cell=0 t=0.198066→0.198206 step=0.000140174 V=-0.323739 u1=0.874385 u2=0.834677 u3=0 Iion=1.19821
DEBUG cell=0 t=0.198066→0.198206 step=0.00126157 V=-0.323739 u1=0.874506 u2=0.834579 u3=0 Iion=1.19824
PIMPLE: iteration 1
DICPCG:  Solving for Vm, Initial residual = 2.93077e-05, Final residual = 5.23494e-17, No Iterations 5
PIMPLE: iteration 2
DICPCG:  Solving for Vm, Initial residual = 1.20159e-16, Final residual = 1.20159e-16, No Iterations 0
ExecutionTime = 95.64 s  ClockTime = 96 s

Time = 0.198346

DEBUG cell=0 t=0.198206→0.198346 step=0.000140174 V=-0.323758 u1=0.874506 u2=0.834579 u3=0 Iion=1.19824
DEBUG cell=0 t=0.198206→0.198346 step=0.00126157 V=-0.323758 u1=0.874627 u2=0.834481 u3=0 Iion=1.19828
PIMPLE: iteration 1
DICPCG:  Solving for Vm, Initial residual = 2.93042e-05, Final residual = 5.23432e-17, No Iterations 5
PIMPLE: iteration 2
DICPCG:  Solving for Vm, Initial residual = 1.20057e-16, Final residual = 1.20057e-16, No Iterations 0
ExecutionTime = 95.71 s  ClockTime = 96 s

Time = 0.198486

DEBUG cell=0 t=0.198346→0.198486 step=0.000140174 V=-0.323777 u1=0.874627 u2=0.834481 u3=0 Iion=1.19828
DEBUG cell=0 t=0.198346→0.198486 step=0.00126157 V=-0.323777 u1=0.874748 u2=0.834384 u3=0 Iion=1.19832
PIMPLE: iteration 1
DICPCG:  Solving for Vm, Initial residual = 2.93008e-05, Final residual = 5.23371e-17, No Iterations 5
PIMPLE: iteration 2
DICPCG:  Solving for Vm, Initial residual = 1.20061e-16, Final residual = 1.20061e-16, No Iterations 0
ExecutionTime = 95.78 s  ClockTime = 96 s

Time = 0.198627

DEBUG cell=0 t=0.198486→0.198627 step=0.000140174 V=-0.323796 u1=0.874748 u2=0.834384 u3=0 Iion=1.19832
DEBUG cell=0 t=0.198486→0.198627 step=0.00126157 V=-0.323796 u1=0.87487 u2=0.834286 u3=0 Iion=1.19836
PIMPLE: iteration 1
DICPCG:  Solving for Vm, Initial residual = 2.92974e-05, Final residual = 5.2331e-17, No Iterations 5
PIMPLE: iteration 2
DICPCG:  Solving for Vm, Initial residual = 1.19983e-16, Final residual = 1.19983e-16, No Iterations 0
ExecutionTime = 95.85 s  ClockTime = 96 s

Time = 0.198767

DEBUG cell=0 t=0.198627→0.198767 step=0.000140174 V=-0.323815 u1=0.87487 u2=0.834286 u3=0 Iion=1.19836
DEBUG cell=0 t=0.198627→0.198767 step=0.00126157 V=-0.323815 u1=0.874991 u2=0.834189 u3=0 Iion=1.1984
PIMPLE: iteration 1
DICPCG:  Solving for Vm, Initial residual = 2.9294e-05, Final residual = 5.23249e-17, No Iterations 5
PIMPLE: iteration 2
DICPCG:  Solving for Vm, Initial residual = 1.20118e-16, Final residual = 1.20118e-16, No Iterations 0
ExecutionTime = 95.92 s  ClockTime = 96 s

Time = 0.198907

DEBUG cell=0 t=0.198767→0.198907 step=0.000140174 V=-0.323834 u1=0.874991 u2=0.834189 u3=0 Iion=1.1984
DEBUG cell=0 t=0.198767→0.198907 step=0.00126157 V=-0.323834 u1=0.875112 u2=0.834091 u3=0 Iion=1.19844
PIMPLE: iteration 1
DICPCG:  Solving for Vm, Initial residual = 2.92906e-05, Final residual = 5.23188e-17, No Iterations 5
PIMPLE: iteration 2
DICPCG:  Solving for Vm, Initial residual = 1.19944e-16, Final residual = 1.19944e-16, No Iterations 0
ExecutionTime = 95.99 s  ClockTime = 97 s

Time = 0.199047

DEBUG cell=0 t=0.198907→0.199047 step=0.000140174 V=-0.323852 u1=0.875112 u2=0.834091 u3=0 Iion=1.19844
DEBUG cell=0 t=0.198907→0.199047 step=0.00126157 V=-0.323852 u1=0.875233 u2=0.833994 u3=0 Iion=1.19848
PIMPLE: iteration 1
DICPCG:  Solving for Vm, Initial residual = 2.92871e-05, Final residual = 5.23127e-17, No Iterations 5
PIMPLE: iteration 2
DICPCG:  Solving for Vm, Initial residual = 1.19762e-16, Final residual = 1.19762e-16, No Iterations 0
ExecutionTime = 96.05 s  ClockTime = 97 s

Time = 0.199187

DEBUG cell=0 t=0.199047→0.199187 step=0.000140174 V=-0.323871 u1=0.875233 u2=0.833994 u3=0 Iion=1.19848
DEBUG cell=0 t=0.199047→0.199187 step=0.00126157 V=-0.323871 u1=0.875355 u2=0.833896 u3=0 Iion=1.19851
PIMPLE: iteration 1
DICPCG:  Solving for Vm, Initial residual = 2.92837e-05, Final residual = 5.23066e-17, No Iterations 5
PIMPLE: iteration 2
DICPCG:  Solving for Vm, Initial residual = 1.19674e-16, Final residual = 1.19674e-16, No Iterations 0
ExecutionTime = 96.12 s  ClockTime = 97 s

Time = 0.199327

DEBUG cell=0 t=0.199187→0.199327 step=0.000140174 V=-0.32389 u1=0.875355 u2=0.833896 u3=0 Iion=1.19851
DEBUG cell=0 t=0.199187→0.199327 step=0.00126157 V=-0.32389 u1=0.875476 u2=0.833799 u3=0 Iion=1.19855
PIMPLE: iteration 1
DICPCG:  Solving for Vm, Initial residual = 2.92803e-05, Final residual = 5.23005e-17, No Iterations 5
PIMPLE: iteration 2
DICPCG:  Solving for Vm, Initial residual = 1.20085e-16, Final residual = 1.20085e-16, No Iterations 0
ExecutionTime = 96.19 s  ClockTime = 97 s

Time = 0.199468

DEBUG cell=0 t=0.199327→0.199468 step=0.000140174 V=-0.323909 u1=0.875476 u2=0.833799 u3=0 Iion=1.19855
DEBUG cell=0 t=0.199327→0.199468 step=0.00126157 V=-0.323909 u1=0.875597 u2=0.833701 u3=0 Iion=1.19859
PIMPLE: iteration 1
DICPCG:  Solving for Vm, Initial residual = 2.92769e-05, Final residual = 5.22944e-17, No Iterations 5
PIMPLE: iteration 2
DICPCG:  Solving for Vm, Initial residual = 1.20003e-16, Final residual = 1.20003e-16, No Iterations 0
ExecutionTime = 96.26 s  ClockTime = 97 s

Time = 0.199608

DEBUG cell=0 t=0.199468→0.199608 step=0.000140174 V=-0.323928 u1=0.875597 u2=0.833701 u3=0 Iion=1.19859
DEBUG cell=0 t=0.199468→0.199608 step=0.00126157 V=-0.323928 u1=0.875718 u2=0.833604 u3=0 Iion=1.19863
PIMPLE: iteration 1
DICPCG:  Solving for Vm, Initial residual = 2.92735e-05, Final residual = 5.22883e-17, No Iterations 5
PIMPLE: iteration 2
DICPCG:  Solving for Vm, Initial residual = 1.19978e-16, Final residual = 1.19978e-16, No Iterations 0
ExecutionTime = 96.34 s  ClockTime = 97 s

Time = 0.199748

DEBUG cell=0 t=0.199608→0.199748 step=0.000140174 V=-0.323947 u1=0.875718 u2=0.833604 u3=0 Iion=1.19863
DEBUG cell=0 t=0.199608→0.199748 step=0.00126157 V=-0.323947 u1=0.87584 u2=0.833506 u3=0 Iion=1.19867
PIMPLE: iteration 1
DICPCG:  Solving for Vm, Initial residual = 2.92701e-05, Final residual = 5.22822e-17, No Iterations 5
PIMPLE: iteration 2
DICPCG:  Solving for Vm, Initial residual = 1.20009e-16, Final residual = 1.20009e-16, No Iterations 0
ExecutionTime = 96.41 s  ClockTime = 97 s

Time = 0.199888

DEBUG cell=0 t=0.199748→0.199888 step=0.000140174 V=-0.323966 u1=0.87584 u2=0.833506 u3=0 Iion=1.19867
DEBUG cell=0 t=0.199748→0.199888 step=0.00126157 V=-0.323966 u1=0.875961 u2=0.833409 u3=0 Iion=1.19871
PIMPLE: iteration 1
DICPCG:  Solving for Vm, Initial residual = 2.92667e-05, Final residual = 5.22761e-17, No Iterations 5
PIMPLE: iteration 2
DICPCG:  Solving for Vm, Initial residual = 1.20062e-16, Final residual = 1.20062e-16, No Iterations 0
ExecutionTime = 96.47 s  ClockTime = 97 s

Time = 0.200028

DEBUG cell=0 t=0.199888→0.200028 step=0.000140174 V=-0.323985 u1=0.875961 u2=0.833409 u3=0 Iion=1.19871
DEBUG cell=0 t=0.199888→0.200028 step=0.00126157 V=-0.323985 u1=0.876082 u2=0.833312 u3=0 Iion=1.19875
PIMPLE: iteration 1
DICPCG:  Solving for Vm, Initial residual = 2.92633e-05, Final residual = 5.227e-17, No Iterations 5
PIMPLE: iteration 2
DICPCG:  Solving for Vm, Initial residual = 1.19997e-16, Final residual = 1.19997e-16, No Iterations 0
Running postProcess via tmanufacturedFDA.

Simulation summary:
-------------------
Number of cells (N)   = 80
Solver type           = Implicit
Grid spacing (dx)     = 0.0125
Time step (dt)        = 0.000140174
Number of steps       = 1427
Final simulation time = 0.200028
-------------------

Manufactured-solution error summary (t = 0.200028):
-------------------------------------------------
Field     L1-error       L2-error       Linf-error
Vm     4.71583e-05   6.45925e-05   0.000183873
u1     3.77065e-06   5.28109e-06   1.94905e-05
u2     1.64338e-06   2.26364e-06   6.88692e-06
-------------------------------------------------

ExecutionTime = 96.58 s  ClockTime = 97 s


End

Finalising parallel run
