/*---------------------------------------------------------------------------*\
| =========                 |                                                 |
| \\      /  F ield         | OpenFOAM: The Open Source CFD Toolbox           |
|  \\    /   O peration     | Version:  2312                                  |
|   \\  /    A nd           | Website:  www.openfoam.com                      |
|    \\/     M anipulation  |                                                 |
\*---------------------------------------------------------------------------*/
Build  : 39362aec25-20240625 OPENFOAM=2312 patch=240625 version=v2312
Arch   : "LSB;label=32;scalar=64"
Exec   : extrudeMesh
Date   : Mar 18 2025
Time   : 15:02:59
Host   : Aarons-MacBook-Pro.local
PID    : 7470
I/O    : uncollated
Case   : /Volumes/OpenFoam/aaronmullen-hales-v2312/run/PHDS1/cardiacFoam/tutorials/LandEtAl2015/problem2/run_Apple_M4_Pro_20250318_150243/hex.seg.3
nProcs : 1
trapFpe: Floating point exception trapping enabled (FOAM_SIGFPE).
fileModificationChecking : Monitoring run-time modified files using timeStampMaster (fileModificationSkew 5, maxFileModificationPolls 20)
allowSystemOperations : Allowing user-supplied system call operations

// * * * * * * * * * * * * * * * * * * * * * * * * * * * * * * * * * * * * * //
Create time

Create mesh for time = 0

Selecting extrudeModel sector
Selected extrudeModel for sector using coeffs 
{
    point           ( 0 0 0 );
    axis            ( 0 0 1 );
    angle           360;
}

Extruding from patch using model sector
Flipping normals before extruding
Collapsing edges < 1e-09 of bounding box

Extruding patches 1(top) on mesh "/Volumes/OpenFoam/aaronmullen-hales-v2312/run/PHDS1/cardiacFoam/tutorials/LandEtAl2015/problem2/run_Apple_M4_Pro_20250318_150243/hex.seg.3"

Create mesh for time = 0

Adding overall 0 processor patches.
Mesh bounding box : (-0.00999975 -0.00999975 -0.02) (0.00999975 0.00999975 0.005)
        with span : (0.0199995 0.0199995 0.025)
Merge distance    : 1.99995e-11

Collapsing edges < 1.99995e-11 ...

Merging edge (780 113113) since length 0 << 1.99995e-11
Merging edge (781 113257) since length 0 << 1.99995e-11
Merging edge (782 113401) since length 0 << 1.99995e-11
Merging edge (783 113545) since length 0 << 1.99995e-11
Merging edge (784 113689) since length 0 << 1.99995e-11
Merging edge (785 113833) since length 0 << 1.99995e-11
Merging edge (786 113977) since length 0 << 1.99995e-11
Merging edge (787 114121) since length 0 << 1.99995e-11
Merging edge (788 114265) since length 0 << 1.99995e-11
Merging edge (789 114409) since length 0 << 1.99995e-11
Merging edge (790 114553) since length 0 << 1.99995e-11
Merging edge (791 114697) since length 0 << 1.99995e-11
Merging edge (792 114841) since length 0 << 1.99995e-11
Merging edge (113113 113114) since length 0 << 1.99995e-11
Merging edge (113114 113115) since length 0 << 1.99995e-11
Merging edge (113115 113116) since length 0 << 1.99995e-11
Merging edge (113116 113117) since length 0 << 1.99995e-11
Merging edge (113117 113118) since length 0 << 1.99995e-11
Merging edge (113118 113119) since length 0 << 1.99995e-11
Merging edge (113119 113120) since length 0 << 1.99995e-11
Merging edge (113120 113121) since length 0 << 1.99995e-11
Merging edge (113121 113122) since length 0 << 1.99995e-11
Merging edge (113122 113123) since length 0 << 1.99995e-11
Merging edge (113123 113124) since length 0 << 1.99995e-11
Merging edge (113124 113125) since length 0 << 1.99995e-11
Merging edge (113125 113126) since length 0 << 1.99995e-11
Merging edge (113126 113127) since length 0 << 1.99995e-11
Merging edge (113127 113128) since length 0 << 1.99995e-11
Merging edge (113128 113129) since length 0 << 1.99995e-11
Merging edge (113129 113130) since length 0 << 1.99995e-11
Merging edge (113130 113131) since length 0 << 1.99995e-11
Merging edge (113131 113132) since length 0 << 1.99995e-11
Merging edge (113132 113133) since length 0 << 1.99995e-11
Merging edge (113133 113134) since length 0 << 1.99995e-11
Merging edge (113134 113135) since length 0 << 1.99995e-11
Merging edge (113135 113136) since length 0 << 1.99995e-11
Merging edge (113136 113137) since length 0 << 1.99995e-11
Merging edge (113137 113138) since length 0 << 1.99995e-11
Merging edge (113138 113139) since length 0 << 1.99995e-11
Merging edge (113139 113140) since length 0 << 1.99995e-11
Merging edge (113140 113141) since length 0 << 1.99995e-11
Merging edge (113141 113142) since length 0 << 1.99995e-11
Merging edge (113142 113143) since length 0 << 1.99995e-11
Merging edge (113143 113144) since length 0 << 1.99995e-11
Merging edge (113144 113145) since length 0 << 1.99995e-11
Merging edge (113145 113146) since length 0 << 1.99995e-11
Merging edge (113146 113147) since length 0 << 1.99995e-11
Merging edge (113147 113148) since length 0 << 1.99995e-11
Merging edge (113148 113149) since length 0 << 1.99995e-11
Merging edge (113149 113150) since length 0 << 1.99995e-11
Merging edge (113150 113151) since length 0 << 1.99995e-11
Merging edge (113151 113152) since length 0 << 1.99995e-11
Merging edge (113152 113153) since length 0 << 1.99995e-11
Merging edge (113153 113154) since length 0 << 1.99995e-11
Merging edge (113154 113155) since length 0 << 1.99995e-11
Merging edge (113155 113156) since length 0 << 1.99995e-11
Merging edge (113156 113157) since length 0 << 1.99995e-11
Merging edge (113157 113158) since length 0 << 1.99995e-11
Merging edge (113158 113159) since length 0 << 1.99995e-11
Merging edge (113159 113160) since length 0 << 1.99995e-11
Merging edge (113160 113161) since length 0 << 1.99995e-11
Merging edge (113161 113162) since length 0 << 1.99995e-11
Merging edge (113162 113163) since length 0 << 1.99995e-11
Merging edge (113163 113164) since length 0 << 1.99995e-11
Merging edge (113164 113165) since length 0 << 1.99995e-11
Merging edge (113165 113166) since length 0 << 1.99995e-11
Merging edge (113166 113167) since length 0 << 1.99995e-11
Merging edge (113167 113168) since length 0 << 1.99995e-11
Merging edge (113168 113169) since length 0 << 1.99995e-11
Merging edge (113169 113170) since length 0 << 1.99995e-11
Merging edge (113170 113171) since length 0 << 1.99995e-11
Merging edge (113171 113172) since length 0 << 1.99995e-11
Merging edge (113172 113173) since length 0 << 1.99995e-11
Merging edge (113173 113174) since length 0 << 1.99995e-11
Merging edge (113174 113175) since length 0 << 1.99995e-11
Merging edge (113175 113176) since length 0 << 1.99995e-11
Merging edge (113176 113177) since length 0 << 1.99995e-11
Merging edge (113177 113178) since length 0 << 1.99995e-11
Merging edge (113178 113179) since length 0 << 1.99995e-11
Merging edge (113179 113180) since length 0 << 1.99995e-11
Merging edge (113180 113181) since length 0 << 1.99995e-11
Merging edge (113181 113182) since length 0 << 1.99995e-11
Merging edge (113182 113183) since length 0 << 1.99995e-11
Merging edge (113183 113184) since length 0 << 1.99995e-11
Merging edge (113184 113185) since length 0 << 1.99995e-11
Merging edge (113185 113186) since length 0 << 1.99995e-11
Merging edge (113186 113187) since length 0 << 1.99995e-11
Merging edge (113187 113188) since length 0 << 1.99995e-11
Merging edge (113188 113189) since length 0 << 1.99995e-11
Merging edge (113189 113190) since length 0 << 1.99995e-11
Merging edge (113190 113191) since length 0 << 1.99995e-11
Merging edge (113191 113192) since length 0 << 1.99995e-11
Merging edge (113192 113193) since length 0 << 1.99995e-11
Merging edge (113193 113194) since length 0 << 1.99995e-11
Merging edge (113194 113195) since length 0 << 1.99995e-11
Merging edge (113195 113196) since length 0 << 1.99995e-11
Merging edge (113196 113197) since length 0 << 1.99995e-11
Merging edge (113197 113198) since length 0 << 1.99995e-11
Merging edge (113198 113199) since length 0 << 1.99995e-11
Merging edge (113199 113200) since length 0 << 1.99995e-11
Merging edge (113200 113201) since length 0 << 1.99995e-11
Merging edge (113201 113202) since length 0 << 1.99995e-11
Merging edge (113202 113203) since length 0 << 1.99995e-11
Merging edge (113203 113204) since length 0 << 1.99995e-11
Merging edge (113204 113205) since length 0 << 1.99995e-11
Merging edge (113205 113206) since length 0 << 1.99995e-11
Merging edge (113206 113207) since length 0 << 1.99995e-11
Merging edge (113207 113208) since length 0 << 1.99995e-11
Merging edge (113208 113209) since length 0 << 1.99995e-11
Merging edge (113209 113210) since length 0 << 1.99995e-11
Merging edge (113210 113211) since length 0 << 1.99995e-11
Merging edge (113211 113212) since length 0 << 1.99995e-11
Merging edge (113212 113213) since length 0 << 1.99995e-11
Merging edge (113213 113214) since length 0 << 1.99995e-11
Merging edge (113214 113215) since length 0 << 1.99995e-11
Merging edge (113215 113216) since length 0 << 1.99995e-11
Merging edge (113216 113217) since length 0 << 1.99995e-11
Merging edge (113217 113218) since length 0 << 1.99995e-11
Merging edge (113218 113219) since length 0 << 1.99995e-11
Merging edge (113219 113220) since length 0 << 1.99995e-11
Merging edge (113220 113221) since length 0 << 1.99995e-11
Merging edge (113221 113222) since length 0 << 1.99995e-11
Merging edge (113222 113223) since length 0 << 1.99995e-11
Merging edge (113223 113224) since length 0 << 1.99995e-11
Merging edge (113224 113225) since length 0 << 1.99995e-11
Merging edge (113225 113226) since length 0 << 1.99995e-11
Merging edge (113226 113227) since length 0 << 1.99995e-11
Merging edge (113227 113228) since length 0 << 1.99995e-11
Merging edge (113228 113229) since length 0 << 1.99995e-11
Merging edge (113229 113230) since length 0 << 1.99995e-11
Merging edge (113230 113231) since length 0 << 1.99995e-11
Merging edge (113231 113232) since length 0 << 1.99995e-11
Merging edge (113232 113233) since length 0 << 1.99995e-11
Merging edge (113233 113234) since length 0 << 1.99995e-11
Merging edge (113234 113235) since length 0 << 1.99995e-11
Merging edge (113235 113236) since length 0 << 1.99995e-11
Merging edge (113236 113237) since length 0 << 1.99995e-11
Merging edge (113237 113238) since length 0 << 1.99995e-11
Merging edge (113238 113239) since length 0 << 1.99995e-11
Merging edge (113239 113240) since length 0 << 1.99995e-11
Merging edge (113240 113241) since length 0 << 1.99995e-11
Merging edge (113241 113242) since length 0 << 1.99995e-11
Merging edge (113242 113243) since length 0 << 1.99995e-11
Merging edge (113243 113244) since length 0 << 1.99995e-11
Merging edge (113244 113245) since length 0 << 1.99995e-11
Merging edge (113245 113246) since length 0 << 1.99995e-11
Merging edge (113246 113247) since length 0 << 1.99995e-11
Merging edge (113247 113248) since length 0 << 1.99995e-11
Merging edge (113248 113249) since length 0 << 1.99995e-11
Merging edge (113249 113250) since length 0 << 1.99995e-11
Merging edge (113250 113251) since length 0 << 1.99995e-11
Merging edge (113251 113252) since length 0 << 1.99995e-11
Merging edge (113252 113253) since length 0 << 1.99995e-11
Merging edge (113253 113254) since length 0 << 1.99995e-11
Merging edge (113254 113255) since length 0 << 1.99995e-11
Merging edge (113255 113256) since length 0 << 1.99995e-11
Merging edge (113257 113258) since length 0 << 1.99995e-11
Merging edge (113258 113259) since length 0 << 1.99995e-11
Merging edge (113259 113260) since length 0 << 1.99995e-11
Merging edge (113260 113261) since length 0 << 1.99995e-11
Merging edge (113261 113262) since length 0 << 1.99995e-11
Merging edge (113262 113263) since length 0 << 1.99995e-11
Merging edge (113263 113264) since length 0 << 1.99995e-11
Merging edge (113264 113265) since length 0 << 1.99995e-11
Merging edge (113265 113266) since length 0 << 1.99995e-11
Merging edge (113266 113267) since length 0 << 1.99995e-11
Merging edge (113267 113268) since length 0 << 1.99995e-11
Merging edge (113268 113269) since length 0 << 1.99995e-11
Merging edge (113269 113270) since length 0 << 1.99995e-11
Merging edge (113270 113271) since length 0 << 1.99995e-11
Merging edge (113271 113272) since length 0 << 1.99995e-11
Merging edge (113272 113273) since length 0 << 1.99995e-11
Merging edge (113273 113274) since length 0 << 1.99995e-11
Merging edge (113274 113275) since length 0 << 1.99995e-11
Merging edge (113275 113276) since length 0 << 1.99995e-11
Merging edge (113276 113277) since length 0 << 1.99995e-11
Merging edge (113277 113278) since length 0 << 1.99995e-11
Merging edge (113278 113279) since length 0 << 1.99995e-11
Merging edge (113279 113280) since length 0 << 1.99995e-11
Merging edge (113280 113281) since length 0 << 1.99995e-11
Merging edge (113281 113282) since length 0 << 1.99995e-11
Merging edge (113282 113283) since length 0 << 1.99995e-11
Merging edge (113283 113284) since length 0 << 1.99995e-11
Merging edge (113284 113285) since length 0 << 1.99995e-11
Merging edge (113285 113286) since length 0 << 1.99995e-11
Merging edge (113286 113287) since length 0 << 1.99995e-11
Merging edge (113287 113288) since length 0 << 1.99995e-11
Merging edge (113288 113289) since length 0 << 1.99995e-11
Merging edge (113289 113290) since length 0 << 1.99995e-11
Merging edge (113290 113291) since length 0 << 1.99995e-11
Merging edge (113291 113292) since length 0 << 1.99995e-11
Merging edge (113292 113293) since length 0 << 1.99995e-11
Merging edge (113293 113294) since length 0 << 1.99995e-11
Merging edge (113294 113295) since length 0 << 1.99995e-11
Merging edge (113295 113296) since length 0 << 1.99995e-11
Merging edge (113296 113297) since length 0 << 1.99995e-11
Merging edge (113297 113298) since length 0 << 1.99995e-11
Merging edge (113298 113299) since length 0 << 1.99995e-11
Merging edge (113299 113300) since length 0 << 1.99995e-11
Merging edge (113300 113301) since length 0 << 1.99995e-11
Merging edge (113301 113302) since length 0 << 1.99995e-11
Merging edge (113302 113303) since length 0 << 1.99995e-11
Merging edge (113303 113304) since length 0 << 1.99995e-11
Merging edge (113304 113305) since length 0 << 1.99995e-11
Merging edge (113305 113306) since length 0 << 1.99995e-11
Merging edge (113306 113307) since length 0 << 1.99995e-11
Merging edge (113307 113308) since length 0 << 1.99995e-11
Merging edge (113308 113309) since length 0 << 1.99995e-11
Merging edge (113309 113310) since length 0 << 1.99995e-11
Merging edge (113310 113311) since length 0 << 1.99995e-11
Merging edge (113311 113312) since length 0 << 1.99995e-11
Merging edge (113312 113313) since length 0 << 1.99995e-11
Merging edge (113313 113314) since length 0 << 1.99995e-11
Merging edge (113314 113315) since length 0 << 1.99995e-11
Merging edge (113315 113316) since length 0 << 1.99995e-11
Merging edge (113316 113317) since length 0 << 1.99995e-11
Merging edge (113317 113318) since length 0 << 1.99995e-11
Merging edge (113318 113319) since length 0 << 1.99995e-11
Merging edge (113319 113320) since length 0 << 1.99995e-11
Merging edge (113320 113321) since length 0 << 1.99995e-11
Merging edge (113321 113322) since length 0 << 1.99995e-11
Merging edge (113322 113323) since length 0 << 1.99995e-11
Merging edge (113323 113324) since length 0 << 1.99995e-11
Merging edge (113324 113325) since length 0 << 1.99995e-11
Merging edge (113325 113326) since length 0 << 1.99995e-11
Merging edge (113326 113327) since length 0 << 1.99995e-11
Merging edge (113327 113328) since length 0 << 1.99995e-11
Merging edge (113328 113329) since length 0 << 1.99995e-11
Merging edge (113329 113330) since length 0 << 1.99995e-11
Merging edge (113330 113331) since length 0 << 1.99995e-11
Merging edge (113331 113332) since length 0 << 1.99995e-11
Merging edge (113332 113333) since length 0 << 1.99995e-11
Merging edge (113333 113334) since length 0 << 1.99995e-11
Merging edge (113334 113335) since length 0 << 1.99995e-11
Merging edge (113335 113336) since length 0 << 1.99995e-11
Merging edge (113336 113337) since length 0 << 1.99995e-11
Merging edge (113337 113338) since length 0 << 1.99995e-11
Merging edge (113338 113339) since length 0 << 1.99995e-11
Merging edge (113339 113340) since length 0 << 1.99995e-11
Merging edge (113340 113341) since length 0 << 1.99995e-11
Merging edge (113341 113342) since length 0 << 1.99995e-11
Merging edge (113342 113343) since length 0 << 1.99995e-11
Merging edge (113343 113344) since length 0 << 1.99995e-11
Merging edge (113344 113345) since length 0 << 1.99995e-11
Merging edge (113345 113346) since length 0 << 1.99995e-11
Merging edge (113346 113347) since length 0 << 1.99995e-11
Merging edge (113347 113348) since length 0 << 1.99995e-11
Merging edge (113348 113349) since length 0 << 1.99995e-11
Merging edge (113349 113350) since length 0 << 1.99995e-11
Merging edge (113350 113351) since length 0 << 1.99995e-11
Merging edge (113351 113352) since length 0 << 1.99995e-11
Merging edge (113352 113353) since length 0 << 1.99995e-11
Merging edge (113353 113354) since length 0 << 1.99995e-11
Merging edge (113354 113355) since length 0 << 1.99995e-11
Merging edge (113355 113356) since length 0 << 1.99995e-11
Merging edge (113356 113357) since length 0 << 1.99995e-11
Merging edge (113357 113358) since length 0 << 1.99995e-11
Merging edge (113358 113359) since length 0 << 1.99995e-11
Merging edge (113359 113360) since length 0 << 1.99995e-11
Merging edge (113360 113361) since length 0 << 1.99995e-11
Merging edge (113361 113362) since length 0 << 1.99995e-11
Merging edge (113362 113363) since length 0 << 1.99995e-11
Merging edge (113363 113364) since length 0 << 1.99995e-11
Merging edge (113364 113365) since length 0 << 1.99995e-11
Merging edge (113365 113366) since length 0 << 1.99995e-11
Merging edge (113366 113367) since length 0 << 1.99995e-11
Merging edge (113367 113368) since length 0 << 1.99995e-11
Merging edge (113368 113369) since length 0 << 1.99995e-11
Merging edge (113369 113370) since length 0 << 1.99995e-11
Merging edge (113370 113371) since length 0 << 1.99995e-11
Merging edge (113371 113372) since length 0 << 1.99995e-11
Merging edge (113372 113373) since length 0 << 1.99995e-11
Merging edge (113373 113374) since length 0 << 1.99995e-11
Merging edge (113374 113375) since length 0 << 1.99995e-11
Merging edge (113375 113376) since length 0 << 1.99995e-11
Merging edge (113376 113377) since length 0 << 1.99995e-11
Merging edge (113377 113378) since length 0 << 1.99995e-11
Merging edge (113378 113379) since length 0 << 1.99995e-11
Merging edge (113379 113380) since length 0 << 1.99995e-11
Merging edge (113380 113381) since length 0 << 1.99995e-11
Merging edge (113381 113382) since length 0 << 1.99995e-11
Merging edge (113382 113383) since length 0 << 1.99995e-11
Merging edge (113383 113384) since length 0 << 1.99995e-11
Merging edge (113384 113385) since length 0 << 1.99995e-11
Merging edge (113385 113386) since length 0 << 1.99995e-11
Merging edge (113386 113387) since length 0 << 1.99995e-11
Merging edge (113387 113388) since length 0 << 1.99995e-11
Merging edge (113388 113389) since length 0 << 1.99995e-11
Merging edge (113389 113390) since length 0 << 1.99995e-11
Merging edge (113390 113391) since length 0 << 1.99995e-11
Merging edge (113391 113392) since length 0 << 1.99995e-11
Merging edge (113392 113393) since length 0 << 1.99995e-11
Merging edge (113393 113394) since length 0 << 1.99995e-11
Merging edge (113394 113395) since length 0 << 1.99995e-11
Merging edge (113395 113396) since length 0 << 1.99995e-11
Merging edge (113396 113397) since length 0 << 1.99995e-11
Merging edge (113397 113398) since length 0 << 1.99995e-11
Merging edge (113398 113399) since length 0 << 1.99995e-11
Merging edge (113399 113400) since length 0 << 1.99995e-11
Merging edge (113401 113402) since length 0 << 1.99995e-11
Merging edge (113402 113403) since length 0 << 1.99995e-11
Merging edge (113403 113404) since length 0 << 1.99995e-11
Merging edge (113404 113405) since length 0 << 1.99995e-11
Merging edge (113405 113406) since length 0 << 1.99995e-11
Merging edge (113406 113407) since length 0 << 1.99995e-11
Merging edge (113407 113408) since length 0 << 1.99995e-11
Merging edge (113408 113409) since length 0 << 1.99995e-11
Merging edge (113409 113410) since length 0 << 1.99995e-11
Merging edge (113410 113411) since length 0 << 1.99995e-11
Merging edge (113411 113412) since length 0 << 1.99995e-11
Merging edge (113412 113413) since length 0 << 1.99995e-11
Merging edge (113413 113414) since length 0 << 1.99995e-11
Merging edge (113414 113415) since length 0 << 1.99995e-11
Merging edge (113415 113416) since length 0 << 1.99995e-11
Merging edge (113416 113417) since length 0 << 1.99995e-11
Merging edge (113417 113418) since length 0 << 1.99995e-11
Merging edge (113418 113419) since length 0 << 1.99995e-11
Merging edge (113419 113420) since length 0 << 1.99995e-11
Merging edge (113420 113421) since length 0 << 1.99995e-11
Merging edge (113421 113422) since length 0 << 1.99995e-11
Merging edge (113422 113423) since length 0 << 1.99995e-11
Merging edge (113423 113424) since length 0 << 1.99995e-11
Merging edge (113424 113425) since length 0 << 1.99995e-11
Merging edge (113425 113426) since length 0 << 1.99995e-11
Merging edge (113426 113427) since length 0 << 1.99995e-11
Merging edge (113427 113428) since length 0 << 1.99995e-11
Merging edge (113428 113429) since length 0 << 1.99995e-11
Merging edge (113429 113430) since length 0 << 1.99995e-11
Merging edge (113430 113431) since length 0 << 1.99995e-11
Merging edge (113431 113432) since length 0 << 1.99995e-11
Merging edge (113432 113433) since length 0 << 1.99995e-11
Merging edge (113433 113434) since length 0 << 1.99995e-11
Merging edge (113434 113435) since length 0 << 1.99995e-11
Merging edge (113435 113436) since length 0 << 1.99995e-11
Merging edge (113436 113437) since length 0 << 1.99995e-11
Merging edge (113437 113438) since length 0 << 1.99995e-11
Merging edge (113438 113439) since length 0 << 1.99995e-11
Merging edge (113439 113440) since length 0 << 1.99995e-11
Merging edge (113440 113441) since length 0 << 1.99995e-11
Merging edge (113441 113442) since length 0 << 1.99995e-11
Merging edge (113442 113443) since length 0 << 1.99995e-11
Merging edge (113443 113444) since length 0 << 1.99995e-11
Merging edge (113444 113445) since length 0 << 1.99995e-11
Merging edge (113445 113446) since length 0 << 1.99995e-11
Merging edge (113446 113447) since length 0 << 1.99995e-11
Merging edge (113447 113448) since length 0 << 1.99995e-11
Merging edge (113448 113449) since length 0 << 1.99995e-11
Merging edge (113449 113450) since length 0 << 1.99995e-11
Merging edge (113450 113451) since length 0 << 1.99995e-11
Merging edge (113451 113452) since length 0 << 1.99995e-11
Merging edge (113452 113453) since length 0 << 1.99995e-11
Merging edge (113453 113454) since length 0 << 1.99995e-11
Merging edge (113454 113455) since length 0 << 1.99995e-11
Merging edge (113455 113456) since length 0 << 1.99995e-11
Merging edge (113456 113457) since length 0 << 1.99995e-11
Merging edge (113457 113458) since length 0 << 1.99995e-11
Merging edge (113458 113459) since length 0 << 1.99995e-11
Merging edge (113459 113460) since length 0 << 1.99995e-11
Merging edge (113460 113461) since length 0 << 1.99995e-11
Merging edge (113461 113462) since length 0 << 1.99995e-11
Merging edge (113462 113463) since length 0 << 1.99995e-11
Merging edge (113463 113464) since length 0 << 1.99995e-11
Merging edge (113464 113465) since length 0 << 1.99995e-11
Merging edge (113465 113466) since length 0 << 1.99995e-11
Merging edge (113466 113467) since length 0 << 1.99995e-11
Merging edge (113467 113468) since length 0 << 1.99995e-11
Merging edge (113468 113469) since length 0 << 1.99995e-11
Merging edge (113469 113470) since length 0 << 1.99995e-11
Merging edge (113470 113471) since length 0 << 1.99995e-11
Merging edge (113471 113472) since length 0 << 1.99995e-11
Merging edge (113472 113473) since length 0 << 1.99995e-11
Merging edge (113473 113474) since length 0 << 1.99995e-11
Merging edge (113474 113475) since length 0 << 1.99995e-11
Merging edge (113475 113476) since length 0 << 1.99995e-11
Merging edge (113476 113477) since length 0 << 1.99995e-11
Merging edge (113477 113478) since length 0 << 1.99995e-11
Merging edge (113478 113479) since length 0 << 1.99995e-11
Merging edge (113479 113480) since length 0 << 1.99995e-11
Merging edge (113480 113481) since length 0 << 1.99995e-11
Merging edge (113481 113482) since length 0 << 1.99995e-11
Merging edge (113482 113483) since length 0 << 1.99995e-11
Merging edge (113483 113484) since length 0 << 1.99995e-11
Merging edge (113484 113485) since length 0 << 1.99995e-11
Merging edge (113485 113486) since length 0 << 1.99995e-11
Merging edge (113486 113487) since length 0 << 1.99995e-11
Merging edge (113487 113488) since length 0 << 1.99995e-11
Merging edge (113488 113489) since length 0 << 1.99995e-11
Merging edge (113489 113490) since length 0 << 1.99995e-11
Merging edge (113490 113491) since length 0 << 1.99995e-11
Merging edge (113491 113492) since length 0 << 1.99995e-11
Merging edge (113492 113493) since length 0 << 1.99995e-11
Merging edge (113493 113494) since length 0 << 1.99995e-11
Merging edge (113494 113495) since length 0 << 1.99995e-11
Merging edge (113495 113496) since length 0 << 1.99995e-11
Merging edge (113496 113497) since length 0 << 1.99995e-11
Merging edge (113497 113498) since length 0 << 1.99995e-11
Merging edge (113498 113499) since length 0 << 1.99995e-11
Merging edge (113499 113500) since length 0 << 1.99995e-11
Merging edge (113500 113501) since length 0 << 1.99995e-11
Merging edge (113501 113502) since length 0 << 1.99995e-11
Merging edge (113502 113503) since length 0 << 1.99995e-11
Merging edge (113503 113504) since length 0 << 1.99995e-11
Merging edge (113504 113505) since length 0 << 1.99995e-11
Merging edge (113505 113506) since length 0 << 1.99995e-11
Merging edge (113506 113507) since length 0 << 1.99995e-11
Merging edge (113507 113508) since length 0 << 1.99995e-11
Merging edge (113508 113509) since length 0 << 1.99995e-11
Merging edge (113509 113510) since length 0 << 1.99995e-11
Merging edge (113510 113511) since length 0 << 1.99995e-11
Merging edge (113511 113512) since length 0 << 1.99995e-11
Merging edge (113512 113513) since length 0 << 1.99995e-11
Merging edge (113513 113514) since length 0 << 1.99995e-11
Merging edge (113514 113515) since length 0 << 1.99995e-11
Merging edge (113515 113516) since length 0 << 1.99995e-11
Merging edge (113516 113517) since length 0 << 1.99995e-11
Merging edge (113517 113518) since length 0 << 1.99995e-11
Merging edge (113518 113519) since length 0 << 1.99995e-11
Merging edge (113519 113520) since length 0 << 1.99995e-11
Merging edge (113520 113521) since length 0 << 1.99995e-11
Merging edge (113521 113522) since length 0 << 1.99995e-11
Merging edge (113522 113523) since length 0 << 1.99995e-11
Merging edge (113523 113524) since length 0 << 1.99995e-11
Merging edge (113524 113525) since length 0 << 1.99995e-11
Merging edge (113525 113526) since length 0 << 1.99995e-11
Merging edge (113526 113527) since length 0 << 1.99995e-11
Merging edge (113527 113528) since length 0 << 1.99995e-11
Merging edge (113528 113529) since length 0 << 1.99995e-11
Merging edge (113529 113530) since length 0 << 1.99995e-11
Merging edge (113530 113531) since length 0 << 1.99995e-11
Merging edge (113531 113532) since length 0 << 1.99995e-11
Merging edge (113532 113533) since length 0 << 1.99995e-11
Merging edge (113533 113534) since length 0 << 1.99995e-11
Merging edge (113534 113535) since length 0 << 1.99995e-11
Merging edge (113535 113536) since length 0 << 1.99995e-11
Merging edge (113536 113537) since length 0 << 1.99995e-11
Merging edge (113537 113538) since length 0 << 1.99995e-11
Merging edge (113538 113539) since length 0 << 1.99995e-11
Merging edge (113539 113540) since length 0 << 1.99995e-11
Merging edge (113540 113541) since length 0 << 1.99995e-11
Merging edge (113541 113542) since length 0 << 1.99995e-11
Merging edge (113542 113543) since length 0 << 1.99995e-11
Merging edge (113543 113544) since length 0 << 1.99995e-11
Merging edge (113545 113546) since length 0 << 1.99995e-11
Merging edge (113546 113547) since length 0 << 1.99995e-11
Merging edge (113547 113548) since length 0 << 1.99995e-11
Merging edge (113548 113549) since length 0 << 1.99995e-11
Merging edge (113549 113550) since length 0 << 1.99995e-11
Merging edge (113550 113551) since length 0 << 1.99995e-11
Merging edge (113551 113552) since length 0 << 1.99995e-11
Merging edge (113552 113553) since length 0 << 1.99995e-11
Merging edge (113553 113554) since length 0 << 1.99995e-11
Merging edge (113554 113555) since length 0 << 1.99995e-11
Merging edge (113555 113556) since length 0 << 1.99995e-11
Merging edge (113556 113557) since length 0 << 1.99995e-11
Merging edge (113557 113558) since length 0 << 1.99995e-11
Merging edge (113558 113559) since length 0 << 1.99995e-11
Merging edge (113559 113560) since length 0 << 1.99995e-11
Merging edge (113560 113561) since length 0 << 1.99995e-11
Merging edge (113561 113562) since length 0 << 1.99995e-11
Merging edge (113562 113563) since length 0 << 1.99995e-11
Merging edge (113563 113564) since length 0 << 1.99995e-11
Merging edge (113564 113565) since length 0 << 1.99995e-11
Merging edge (113565 113566) since length 0 << 1.99995e-11
Merging edge (113566 113567) since length 0 << 1.99995e-11
Merging edge (113567 113568) since length 0 << 1.99995e-11
Merging edge (113568 113569) since length 0 << 1.99995e-11
Merging edge (113569 113570) since length 0 << 1.99995e-11
Merging edge (113570 113571) since length 0 << 1.99995e-11
Merging edge (113571 113572) since length 0 << 1.99995e-11
Merging edge (113572 113573) since length 0 << 1.99995e-11
Merging edge (113573 113574) since length 0 << 1.99995e-11
Merging edge (113574 113575) since length 0 << 1.99995e-11
Merging edge (113575 113576) since length 0 << 1.99995e-11
Merging edge (113576 113577) since length 0 << 1.99995e-11
Merging edge (113577 113578) since length 0 << 1.99995e-11
Merging edge (113578 113579) since length 0 << 1.99995e-11
Merging edge (113579 113580) since length 0 << 1.99995e-11
Merging edge (113580 113581) since length 0 << 1.99995e-11
Merging edge (113581 113582) since length 0 << 1.99995e-11
Merging edge (113582 113583) since length 0 << 1.99995e-11
Merging edge (113583 113584) since length 0 << 1.99995e-11
Merging edge (113584 113585) since length 0 << 1.99995e-11
Merging edge (113585 113586) since length 0 << 1.99995e-11
Merging edge (113586 113587) since length 0 << 1.99995e-11
Merging edge (113587 113588) since length 0 << 1.99995e-11
Merging edge (113588 113589) since length 0 << 1.99995e-11
Merging edge (113589 113590) since length 0 << 1.99995e-11
Merging edge (113590 113591) since length 0 << 1.99995e-11
Merging edge (113591 113592) since length 0 << 1.99995e-11
Merging edge (113592 113593) since length 0 << 1.99995e-11
Merging edge (113593 113594) since length 0 << 1.99995e-11
Merging edge (113594 113595) since length 0 << 1.99995e-11
Merging edge (113595 113596) since length 0 << 1.99995e-11
Merging edge (113596 113597) since length 0 << 1.99995e-11
Merging edge (113597 113598) since length 0 << 1.99995e-11
Merging edge (113598 113599) since length 0 << 1.99995e-11
Merging edge (113599 113600) since length 0 << 1.99995e-11
Merging edge (113600 113601) since length 0 << 1.99995e-11
Merging edge (113601 113602) since length 0 << 1.99995e-11
Merging edge (113602 113603) since length 0 << 1.99995e-11
Merging edge (113603 113604) since length 0 << 1.99995e-11
Merging edge (113604 113605) since length 0 << 1.99995e-11
Merging edge (113605 113606) since length 0 << 1.99995e-11
Merging edge (113606 113607) since length 0 << 1.99995e-11
Merging edge (113607 113608) since length 0 << 1.99995e-11
Merging edge (113608 113609) since length 0 << 1.99995e-11
Merging edge (113609 113610) since length 0 << 1.99995e-11
Merging edge (113610 113611) since length 0 << 1.99995e-11
Merging edge (113611 113612) since length 0 << 1.99995e-11
Merging edge (113612 113613) since length 0 << 1.99995e-11
Merging edge (113613 113614) since length 0 << 1.99995e-11
Merging edge (113614 113615) since length 0 << 1.99995e-11
Merging edge (113615 113616) since length 0 << 1.99995e-11
Merging edge (113616 113617) since length 0 << 1.99995e-11
Merging edge (113617 113618) since length 0 << 1.99995e-11
Merging edge (113618 113619) since length 0 << 1.99995e-11
Merging edge (113619 113620) since length 0 << 1.99995e-11
Merging edge (113620 113621) since length 0 << 1.99995e-11
Merging edge (113621 113622) since length 0 << 1.99995e-11
Merging edge (113622 113623) since length 0 << 1.99995e-11
Merging edge (113623 113624) since length 0 << 1.99995e-11
Merging edge (113624 113625) since length 0 << 1.99995e-11
Merging edge (113625 113626) since length 0 << 1.99995e-11
Merging edge (113626 113627) since length 0 << 1.99995e-11
Merging edge (113627 113628) since length 0 << 1.99995e-11
Merging edge (113628 113629) since length 0 << 1.99995e-11
Merging edge (113629 113630) since length 0 << 1.99995e-11
Merging edge (113630 113631) since length 0 << 1.99995e-11
Merging edge (113631 113632) since length 0 << 1.99995e-11
Merging edge (113632 113633) since length 0 << 1.99995e-11
Merging edge (113633 113634) since length 0 << 1.99995e-11
Merging edge (113634 113635) since length 0 << 1.99995e-11
Merging edge (113635 113636) since length 0 << 1.99995e-11
Merging edge (113636 113637) since length 0 << 1.99995e-11
Merging edge (113637 113638) since length 0 << 1.99995e-11
Merging edge (113638 113639) since length 0 << 1.99995e-11
Merging edge (113639 113640) since length 0 << 1.99995e-11
Merging edge (113640 113641) since length 0 << 1.99995e-11
Merging edge (113641 113642) since length 0 << 1.99995e-11
Merging edge (113642 113643) since length 0 << 1.99995e-11
Merging edge (113643 113644) since length 0 << 1.99995e-11
Merging edge (113644 113645) since length 0 << 1.99995e-11
Merging edge (113645 113646) since length 0 << 1.99995e-11
Merging edge (113646 113647) since length 0 << 1.99995e-11
Merging edge (113647 113648) since length 0 << 1.99995e-11
Merging edge (113648 113649) since length 0 << 1.99995e-11
Merging edge (113649 113650) since length 0 << 1.99995e-11
Merging edge (113650 113651) since length 0 << 1.99995e-11
Merging edge (113651 113652) since length 0 << 1.99995e-11
Merging edge (113652 113653) since length 0 << 1.99995e-11
Merging edge (113653 113654) since length 0 << 1.99995e-11
Merging edge (113654 113655) since length 0 << 1.99995e-11
Merging edge (113655 113656) since length 0 << 1.99995e-11
Merging edge (113656 113657) since length 0 << 1.99995e-11
Merging edge (113657 113658) since length 0 << 1.99995e-11
Merging edge (113658 113659) since length 0 << 1.99995e-11
Merging edge (113659 113660) since length 0 << 1.99995e-11
Merging edge (113660 113661) since length 0 << 1.99995e-11
Merging edge (113661 113662) since length 0 << 1.99995e-11
Merging edge (113662 113663) since length 0 << 1.99995e-11
Merging edge (113663 113664) since length 0 << 1.99995e-11
Merging edge (113664 113665) since length 0 << 1.99995e-11
Merging edge (113665 113666) since length 0 << 1.99995e-11
Merging edge (113666 113667) since length 0 << 1.99995e-11
Merging edge (113667 113668) since length 0 << 1.99995e-11
Merging edge (113668 113669) since length 0 << 1.99995e-11
Merging edge (113669 113670) since length 0 << 1.99995e-11
Merging edge (113670 113671) since length 0 << 1.99995e-11
Merging edge (113671 113672) since length 0 << 1.99995e-11
Merging edge (113672 113673) since length 0 << 1.99995e-11
Merging edge (113673 113674) since length 0 << 1.99995e-11
Merging edge (113674 113675) since length 0 << 1.99995e-11
Merging edge (113675 113676) since length 0 << 1.99995e-11
Merging edge (113676 113677) since length 0 << 1.99995e-11
Merging edge (113677 113678) since length 0 << 1.99995e-11
Merging edge (113678 113679) since length 0 << 1.99995e-11
Merging edge (113679 113680) since length 0 << 1.99995e-11
Merging edge (113680 113681) since length 0 << 1.99995e-11
Merging edge (113681 113682) since length 0 << 1.99995e-11
Merging edge (113682 113683) since length 0 << 1.99995e-11
Merging edge (113683 113684) since length 0 << 1.99995e-11
Merging edge (113684 113685) since length 0 << 1.99995e-11
Merging edge (113685 113686) since length 0 << 1.99995e-11
Merging edge (113686 113687) since length 0 << 1.99995e-11
Merging edge (113687 113688) since length 0 << 1.99995e-11
Merging edge (113689 113690) since length 0 << 1.99995e-11
Merging edge (113690 113691) since length 0 << 1.99995e-11
Merging edge (113691 113692) since length 0 << 1.99995e-11
Merging edge (113692 113693) since length 0 << 1.99995e-11
Merging edge (113693 113694) since length 0 << 1.99995e-11
Merging edge (113694 113695) since length 0 << 1.99995e-11
Merging edge (113695 113696) since length 0 << 1.99995e-11
Merging edge (113696 113697) since length 0 << 1.99995e-11
Merging edge (113697 113698) since length 0 << 1.99995e-11
Merging edge (113698 113699) since length 0 << 1.99995e-11
Merging edge (113699 113700) since length 0 << 1.99995e-11
Merging edge (113700 113701) since length 0 << 1.99995e-11
Merging edge (113701 113702) since length 0 << 1.99995e-11
Merging edge (113702 113703) since length 0 << 1.99995e-11
Merging edge (113703 113704) since length 0 << 1.99995e-11
Merging edge (113704 113705) since length 0 << 1.99995e-11
Merging edge (113705 113706) since length 0 << 1.99995e-11
Merging edge (113706 113707) since length 0 << 1.99995e-11
Merging edge (113707 113708) since length 0 << 1.99995e-11
Merging edge (113708 113709) since length 0 << 1.99995e-11
Merging edge (113709 113710) since length 0 << 1.99995e-11
Merging edge (113710 113711) since length 0 << 1.99995e-11
Merging edge (113711 113712) since length 0 << 1.99995e-11
Merging edge (113712 113713) since length 0 << 1.99995e-11
Merging edge (113713 113714) since length 0 << 1.99995e-11
Merging edge (113714 113715) since length 0 << 1.99995e-11
Merging edge (113715 113716) since length 0 << 1.99995e-11
Merging edge (113716 113717) since length 0 << 1.99995e-11
Merging edge (113717 113718) since length 0 << 1.99995e-11
Merging edge (113718 113719) since length 0 << 1.99995e-11
Merging edge (113719 113720) since length 0 << 1.99995e-11
Merging edge (113720 113721) since length 0 << 1.99995e-11
Merging edge (113721 113722) since length 0 << 1.99995e-11
Merging edge (113722 113723) since length 0 << 1.99995e-11
Merging edge (113723 113724) since length 0 << 1.99995e-11
Merging edge (113724 113725) since length 0 << 1.99995e-11
Merging edge (113725 113726) since length 0 << 1.99995e-11
Merging edge (113726 113727) since length 0 << 1.99995e-11
Merging edge (113727 113728) since length 0 << 1.99995e-11
Merging edge (113728 113729) since length 0 << 1.99995e-11
Merging edge (113729 113730) since length 0 << 1.99995e-11
Merging edge (113730 113731) since length 0 << 1.99995e-11
Merging edge (113731 113732) since length 0 << 1.99995e-11
Merging edge (113732 113733) since length 0 << 1.99995e-11
Merging edge (113733 113734) since length 0 << 1.99995e-11
Merging edge (113734 113735) since length 0 << 1.99995e-11
Merging edge (113735 113736) since length 0 << 1.99995e-11
Merging edge (113736 113737) since length 0 << 1.99995e-11
Merging edge (113737 113738) since length 0 << 1.99995e-11
Merging edge (113738 113739) since length 0 << 1.99995e-11
Merging edge (113739 113740) since length 0 << 1.99995e-11
Merging edge (113740 113741) since length 0 << 1.99995e-11
Merging edge (113741 113742) since length 0 << 1.99995e-11
Merging edge (113742 113743) since length 0 << 1.99995e-11
Merging edge (113743 113744) since length 0 << 1.99995e-11
Merging edge (113744 113745) since length 0 << 1.99995e-11
Merging edge (113745 113746) since length 0 << 1.99995e-11
Merging edge (113746 113747) since length 0 << 1.99995e-11
Merging edge (113747 113748) since length 0 << 1.99995e-11
Merging edge (113748 113749) since length 0 << 1.99995e-11
Merging edge (113749 113750) since length 0 << 1.99995e-11
Merging edge (113750 113751) since length 0 << 1.99995e-11
Merging edge (113751 113752) since length 0 << 1.99995e-11
Merging edge (113752 113753) since length 0 << 1.99995e-11
Merging edge (113753 113754) since length 0 << 1.99995e-11
Merging edge (113754 113755) since length 0 << 1.99995e-11
Merging edge (113755 113756) since length 0 << 1.99995e-11
Merging edge (113756 113757) since length 0 << 1.99995e-11
Merging edge (113757 113758) since length 0 << 1.99995e-11
Merging edge (113758 113759) since length 0 << 1.99995e-11
Merging edge (113759 113760) since length 0 << 1.99995e-11
Merging edge (113760 113761) since length 0 << 1.99995e-11
Merging edge (113761 113762) since length 0 << 1.99995e-11
Merging edge (113762 113763) since length 0 << 1.99995e-11
Merging edge (113763 113764) since length 0 << 1.99995e-11
Merging edge (113764 113765) since length 0 << 1.99995e-11
Merging edge (113765 113766) since length 0 << 1.99995e-11
Merging edge (113766 113767) since length 0 << 1.99995e-11
Merging edge (113767 113768) since length 0 << 1.99995e-11
Merging edge (113768 113769) since length 0 << 1.99995e-11
Merging edge (113769 113770) since length 0 << 1.99995e-11
Merging edge (113770 113771) since length 0 << 1.99995e-11
Merging edge (113771 113772) since length 0 << 1.99995e-11
Merging edge (113772 113773) since length 0 << 1.99995e-11
Merging edge (113773 113774) since length 0 << 1.99995e-11
Merging edge (113774 113775) since length 0 << 1.99995e-11
Merging edge (113775 113776) since length 0 << 1.99995e-11
Merging edge (113776 113777) since length 0 << 1.99995e-11
Merging edge (113777 113778) since length 0 << 1.99995e-11
Merging edge (113778 113779) since length 0 << 1.99995e-11
Merging edge (113779 113780) since length 0 << 1.99995e-11
Merging edge (113780 113781) since length 0 << 1.99995e-11
Merging edge (113781 113782) since length 0 << 1.99995e-11
Merging edge (113782 113783) since length 0 << 1.99995e-11
Merging edge (113783 113784) since length 0 << 1.99995e-11
Merging edge (113784 113785) since length 0 << 1.99995e-11
Merging edge (113785 113786) since length 0 << 1.99995e-11
Merging edge (113786 113787) since length 0 << 1.99995e-11
Merging edge (113787 113788) since length 0 << 1.99995e-11
Merging edge (113788 113789) since length 0 << 1.99995e-11
Merging edge (113789 113790) since length 0 << 1.99995e-11
Merging edge (113790 113791) since length 0 << 1.99995e-11
Merging edge (113791 113792) since length 0 << 1.99995e-11
Merging edge (113792 113793) since length 0 << 1.99995e-11
Merging edge (113793 113794) since length 0 << 1.99995e-11
Merging edge (113794 113795) since length 0 << 1.99995e-11
Merging edge (113795 113796) since length 0 << 1.99995e-11
Merging edge (113796 113797) since length 0 << 1.99995e-11
Merging edge (113797 113798) since length 0 << 1.99995e-11
Merging edge (113798 113799) since length 0 << 1.99995e-11
Merging edge (113799 113800) since length 0 << 1.99995e-11
Merging edge (113800 113801) since length 0 << 1.99995e-11
Merging edge (113801 113802) since length 0 << 1.99995e-11
Merging edge (113802 113803) since length 0 << 1.99995e-11
Merging edge (113803 113804) since length 0 << 1.99995e-11
Merging edge (113804 113805) since length 0 << 1.99995e-11
Merging edge (113805 113806) since length 0 << 1.99995e-11
Merging edge (113806 113807) since length 0 << 1.99995e-11
Merging edge (113807 113808) since length 0 << 1.99995e-11
Merging edge (113808 113809) since length 0 << 1.99995e-11
Merging edge (113809 113810) since length 0 << 1.99995e-11
Merging edge (113810 113811) since length 0 << 1.99995e-11
Merging edge (113811 113812) since length 0 << 1.99995e-11
Merging edge (113812 113813) since length 0 << 1.99995e-11
Merging edge (113813 113814) since length 0 << 1.99995e-11
Merging edge (113814 113815) since length 0 << 1.99995e-11
Merging edge (113815 113816) since length 0 << 1.99995e-11
Merging edge (113816 113817) since length 0 << 1.99995e-11
Merging edge (113817 113818) since length 0 << 1.99995e-11
Merging edge (113818 113819) since length 0 << 1.99995e-11
Merging edge (113819 113820) since length 0 << 1.99995e-11
Merging edge (113820 113821) since length 0 << 1.99995e-11
Merging edge (113821 113822) since length 0 << 1.99995e-11
Merging edge (113822 113823) since length 0 << 1.99995e-11
Merging edge (113823 113824) since length 0 << 1.99995e-11
Merging edge (113824 113825) since length 0 << 1.99995e-11
Merging edge (113825 113826) since length 0 << 1.99995e-11
Merging edge (113826 113827) since length 0 << 1.99995e-11
Merging edge (113827 113828) since length 0 << 1.99995e-11
Merging edge (113828 113829) since length 0 << 1.99995e-11
Merging edge (113829 113830) since length 0 << 1.99995e-11
Merging edge (113830 113831) since length 0 << 1.99995e-11
Merging edge (113831 113832) since length 0 << 1.99995e-11
Merging edge (113833 113834) since length 0 << 1.99995e-11
Merging edge (113834 113835) since length 0 << 1.99995e-11
Merging edge (113835 113836) since length 0 << 1.99995e-11
Merging edge (113836 113837) since length 0 << 1.99995e-11
Merging edge (113837 113838) since length 0 << 1.99995e-11
Merging edge (113838 113839) since length 0 << 1.99995e-11
Merging edge (113839 113840) since length 0 << 1.99995e-11
Merging edge (113840 113841) since length 0 << 1.99995e-11
Merging edge (113841 113842) since length 0 << 1.99995e-11
Merging edge (113842 113843) since length 0 << 1.99995e-11
Merging edge (113843 113844) since length 0 << 1.99995e-11
Merging edge (113844 113845) since length 0 << 1.99995e-11
Merging edge (113845 113846) since length 0 << 1.99995e-11
Merging edge (113846 113847) since length 0 << 1.99995e-11
Merging edge (113847 113848) since length 0 << 1.99995e-11
Merging edge (113848 113849) since length 0 << 1.99995e-11
Merging edge (113849 113850) since length 0 << 1.99995e-11
Merging edge (113850 113851) since length 0 << 1.99995e-11
Merging edge (113851 113852) since length 0 << 1.99995e-11
Merging edge (113852 113853) since length 0 << 1.99995e-11
Merging edge (113853 113854) since length 0 << 1.99995e-11
Merging edge (113854 113855) since length 0 << 1.99995e-11
Merging edge (113855 113856) since length 0 << 1.99995e-11
Merging edge (113856 113857) since length 0 << 1.99995e-11
Merging edge (113857 113858) since length 0 << 1.99995e-11
Merging edge (113858 113859) since length 0 << 1.99995e-11
Merging edge (113859 113860) since length 0 << 1.99995e-11
Merging edge (113860 113861) since length 0 << 1.99995e-11
Merging edge (113861 113862) since length 0 << 1.99995e-11
Merging edge (113862 113863) since length 0 << 1.99995e-11
Merging edge (113863 113864) since length 0 << 1.99995e-11
Merging edge (113864 113865) since length 0 << 1.99995e-11
Merging edge (113865 113866) since length 0 << 1.99995e-11
Merging edge (113866 113867) since length 0 << 1.99995e-11
Merging edge (113867 113868) since length 0 << 1.99995e-11
Merging edge (113868 113869) since length 0 << 1.99995e-11
Merging edge (113869 113870) since length 0 << 1.99995e-11
Merging edge (113870 113871) since length 0 << 1.99995e-11
Merging edge (113871 113872) since length 0 << 1.99995e-11
Merging edge (113872 113873) since length 0 << 1.99995e-11
Merging edge (113873 113874) since length 0 << 1.99995e-11
Merging edge (113874 113875) since length 0 << 1.99995e-11
Merging edge (113875 113876) since length 0 << 1.99995e-11
Merging edge (113876 113877) since length 0 << 1.99995e-11
Merging edge (113877 113878) since length 0 << 1.99995e-11
Merging edge (113878 113879) since length 0 << 1.99995e-11
Merging edge (113879 113880) since length 0 << 1.99995e-11
Merging edge (113880 113881) since length 0 << 1.99995e-11
Merging edge (113881 113882) since length 0 << 1.99995e-11
Merging edge (113882 113883) since length 0 << 1.99995e-11
Merging edge (113883 113884) since length 0 << 1.99995e-11
Merging edge (113884 113885) since length 0 << 1.99995e-11
Merging edge (113885 113886) since length 0 << 1.99995e-11
Merging edge (113886 113887) since length 0 << 1.99995e-11
Merging edge (113887 113888) since length 0 << 1.99995e-11
Merging edge (113888 113889) since length 0 << 1.99995e-11
Merging edge (113889 113890) since length 0 << 1.99995e-11
Merging edge (113890 113891) since length 0 << 1.99995e-11
Merging edge (113891 113892) since length 0 << 1.99995e-11
Merging edge (113892 113893) since length 0 << 1.99995e-11
Merging edge (113893 113894) since length 0 << 1.99995e-11
Merging edge (113894 113895) since length 0 << 1.99995e-11
Merging edge (113895 113896) since length 0 << 1.99995e-11
Merging edge (113896 113897) since length 0 << 1.99995e-11
Merging edge (113897 113898) since length 0 << 1.99995e-11
Merging edge (113898 113899) since length 0 << 1.99995e-11
Merging edge (113899 113900) since length 0 << 1.99995e-11
Merging edge (113900 113901) since length 0 << 1.99995e-11
Merging edge (113901 113902) since length 0 << 1.99995e-11
Merging edge (113902 113903) since length 0 << 1.99995e-11
Merging edge (113903 113904) since length 0 << 1.99995e-11
Merging edge (113904 113905) since length 0 << 1.99995e-11
Merging edge (113905 113906) since length 0 << 1.99995e-11
Merging edge (113906 113907) since length 0 << 1.99995e-11
Merging edge (113907 113908) since length 0 << 1.99995e-11
Merging edge (113908 113909) since length 0 << 1.99995e-11
Merging edge (113909 113910) since length 0 << 1.99995e-11
Merging edge (113910 113911) since length 0 << 1.99995e-11
Merging edge (113911 113912) since length 0 << 1.99995e-11
Merging edge (113912 113913) since length 0 << 1.99995e-11
Merging edge (113913 113914) since length 0 << 1.99995e-11
Merging edge (113914 113915) since length 0 << 1.99995e-11
Merging edge (113915 113916) since length 0 << 1.99995e-11
Merging edge (113916 113917) since length 0 << 1.99995e-11
Merging edge (113917 113918) since length 0 << 1.99995e-11
Merging edge (113918 113919) since length 0 << 1.99995e-11
Merging edge (113919 113920) since length 0 << 1.99995e-11
Merging edge (113920 113921) since length 0 << 1.99995e-11
Merging edge (113921 113922) since length 0 << 1.99995e-11
Merging edge (113922 113923) since length 0 << 1.99995e-11
Merging edge (113923 113924) since length 0 << 1.99995e-11
Merging edge (113924 113925) since length 0 << 1.99995e-11
Merging edge (113925 113926) since length 0 << 1.99995e-11
Merging edge (113926 113927) since length 0 << 1.99995e-11
Merging edge (113927 113928) since length 0 << 1.99995e-11
Merging edge (113928 113929) since length 0 << 1.99995e-11
Merging edge (113929 113930) since length 0 << 1.99995e-11
Merging edge (113930 113931) since length 0 << 1.99995e-11
Merging edge (113931 113932) since length 0 << 1.99995e-11
Merging edge (113932 113933) since length 0 << 1.99995e-11
Merging edge (113933 113934) since length 0 << 1.99995e-11
Merging edge (113934 113935) since length 0 << 1.99995e-11
Merging edge (113935 113936) since length 0 << 1.99995e-11
Merging edge (113936 113937) since length 0 << 1.99995e-11
Merging edge (113937 113938) since length 0 << 1.99995e-11
Merging edge (113938 113939) since length 0 << 1.99995e-11
Merging edge (113939 113940) since length 0 << 1.99995e-11
Merging edge (113940 113941) since length 0 << 1.99995e-11
Merging edge (113941 113942) since length 0 << 1.99995e-11
Merging edge (113942 113943) since length 0 << 1.99995e-11
Merging edge (113943 113944) since length 0 << 1.99995e-11
Merging edge (113944 113945) since length 0 << 1.99995e-11
Merging edge (113945 113946) since length 0 << 1.99995e-11
Merging edge (113946 113947) since length 0 << 1.99995e-11
Merging edge (113947 113948) since length 0 << 1.99995e-11
Merging edge (113948 113949) since length 0 << 1.99995e-11
Merging edge (113949 113950) since length 0 << 1.99995e-11
Merging edge (113950 113951) since length 0 << 1.99995e-11
Merging edge (113951 113952) since length 0 << 1.99995e-11
Merging edge (113952 113953) since length 0 << 1.99995e-11
Merging edge (113953 113954) since length 0 << 1.99995e-11
Merging edge (113954 113955) since length 0 << 1.99995e-11
Merging edge (113955 113956) since length 0 << 1.99995e-11
Merging edge (113956 113957) since length 0 << 1.99995e-11
Merging edge (113957 113958) since length 0 << 1.99995e-11
Merging edge (113958 113959) since length 0 << 1.99995e-11
Merging edge (113959 113960) since length 0 << 1.99995e-11
Merging edge (113960 113961) since length 0 << 1.99995e-11
Merging edge (113961 113962) since length 0 << 1.99995e-11
Merging edge (113962 113963) since length 0 << 1.99995e-11
Merging edge (113963 113964) since length 0 << 1.99995e-11
Merging edge (113964 113965) since length 0 << 1.99995e-11
Merging edge (113965 113966) since length 0 << 1.99995e-11
Merging edge (113966 113967) since length 0 << 1.99995e-11
Merging edge (113967 113968) since length 0 << 1.99995e-11
Merging edge (113968 113969) since length 0 << 1.99995e-11
Merging edge (113969 113970) since length 0 << 1.99995e-11
Merging edge (113970 113971) since length 0 << 1.99995e-11
Merging edge (113971 113972) since length 0 << 1.99995e-11
Merging edge (113972 113973) since length 0 << 1.99995e-11
Merging edge (113973 113974) since length 0 << 1.99995e-11
Merging edge (113974 113975) since length 0 << 1.99995e-11
Merging edge (113975 113976) since length 0 << 1.99995e-11
Merging edge (113977 113978) since length 0 << 1.99995e-11
Merging edge (113978 113979) since length 0 << 1.99995e-11
Merging edge (113979 113980) since length 0 << 1.99995e-11
Merging edge (113980 113981) since length 0 << 1.99995e-11
Merging edge (113981 113982) since length 0 << 1.99995e-11
Merging edge (113982 113983) since length 0 << 1.99995e-11
Merging edge (113983 113984) since length 0 << 1.99995e-11
Merging edge (113984 113985) since length 0 << 1.99995e-11
Merging edge (113985 113986) since length 0 << 1.99995e-11
Merging edge (113986 113987) since length 0 << 1.99995e-11
Merging edge (113987 113988) since length 0 << 1.99995e-11
Merging edge (113988 113989) since length 0 << 1.99995e-11
Merging edge (113989 113990) since length 0 << 1.99995e-11
Merging edge (113990 113991) since length 0 << 1.99995e-11
Merging edge (113991 113992) since length 0 << 1.99995e-11
Merging edge (113992 113993) since length 0 << 1.99995e-11
Merging edge (113993 113994) since length 0 << 1.99995e-11
Merging edge (113994 113995) since length 0 << 1.99995e-11
Merging edge (113995 113996) since length 0 << 1.99995e-11
Merging edge (113996 113997) since length 0 << 1.99995e-11
Merging edge (113997 113998) since length 0 << 1.99995e-11
Merging edge (113998 113999) since length 0 << 1.99995e-11
Merging edge (113999 114000) since length 0 << 1.99995e-11
Merging edge (114000 114001) since length 0 << 1.99995e-11
Merging edge (114001 114002) since length 0 << 1.99995e-11
Merging edge (114002 114003) since length 0 << 1.99995e-11
Merging edge (114003 114004) since length 0 << 1.99995e-11
Merging edge (114004 114005) since length 0 << 1.99995e-11
Merging edge (114005 114006) since length 0 << 1.99995e-11
Merging edge (114006 114007) since length 0 << 1.99995e-11
Merging edge (114007 114008) since length 0 << 1.99995e-11
Merging edge (114008 114009) since length 0 << 1.99995e-11
Merging edge (114009 114010) since length 0 << 1.99995e-11
Merging edge (114010 114011) since length 0 << 1.99995e-11
Merging edge (114011 114012) since length 0 << 1.99995e-11
Merging edge (114012 114013) since length 0 << 1.99995e-11
Merging edge (114013 114014) since length 0 << 1.99995e-11
Merging edge (114014 114015) since length 0 << 1.99995e-11
Merging edge (114015 114016) since length 0 << 1.99995e-11
Merging edge (114016 114017) since length 0 << 1.99995e-11
Merging edge (114017 114018) since length 0 << 1.99995e-11
Merging edge (114018 114019) since length 0 << 1.99995e-11
Merging edge (114019 114020) since length 0 << 1.99995e-11
Merging edge (114020 114021) since length 0 << 1.99995e-11
Merging edge (114021 114022) since length 0 << 1.99995e-11
Merging edge (114022 114023) since length 0 << 1.99995e-11
Merging edge (114023 114024) since length 0 << 1.99995e-11
Merging edge (114024 114025) since length 0 << 1.99995e-11
Merging edge (114025 114026) since length 0 << 1.99995e-11
Merging edge (114026 114027) since length 0 << 1.99995e-11
Merging edge (114027 114028) since length 0 << 1.99995e-11
Merging edge (114028 114029) since length 0 << 1.99995e-11
Merging edge (114029 114030) since length 0 << 1.99995e-11
Merging edge (114030 114031) since length 0 << 1.99995e-11
Merging edge (114031 114032) since length 0 << 1.99995e-11
Merging edge (114032 114033) since length 0 << 1.99995e-11
Merging edge (114033 114034) since length 0 << 1.99995e-11
Merging edge (114034 114035) since length 0 << 1.99995e-11
Merging edge (114035 114036) since length 0 << 1.99995e-11
Merging edge (114036 114037) since length 0 << 1.99995e-11
Merging edge (114037 114038) since length 0 << 1.99995e-11
Merging edge (114038 114039) since length 0 << 1.99995e-11
Merging edge (114039 114040) since length 0 << 1.99995e-11
Merging edge (114040 114041) since length 0 << 1.99995e-11
Merging edge (114041 114042) since length 0 << 1.99995e-11
Merging edge (114042 114043) since length 0 << 1.99995e-11
Merging edge (114043 114044) since length 0 << 1.99995e-11
Merging edge (114044 114045) since length 0 << 1.99995e-11
Merging edge (114045 114046) since length 0 << 1.99995e-11
Merging edge (114046 114047) since length 0 << 1.99995e-11
Merging edge (114047 114048) since length 0 << 1.99995e-11
Merging edge (114048 114049) since length 0 << 1.99995e-11
Merging edge (114049 114050) since length 0 << 1.99995e-11
Merging edge (114050 114051) since length 0 << 1.99995e-11
Merging edge (114051 114052) since length 0 << 1.99995e-11
Merging edge (114052 114053) since length 0 << 1.99995e-11
Merging edge (114053 114054) since length 0 << 1.99995e-11
Merging edge (114054 114055) since length 0 << 1.99995e-11
Merging edge (114055 114056) since length 0 << 1.99995e-11
Merging edge (114056 114057) since length 0 << 1.99995e-11
Merging edge (114057 114058) since length 0 << 1.99995e-11
Merging edge (114058 114059) since length 0 << 1.99995e-11
Merging edge (114059 114060) since length 0 << 1.99995e-11
Merging edge (114060 114061) since length 0 << 1.99995e-11
Merging edge (114061 114062) since length 0 << 1.99995e-11
Merging edge (114062 114063) since length 0 << 1.99995e-11
Merging edge (114063 114064) since length 0 << 1.99995e-11
Merging edge (114064 114065) since length 0 << 1.99995e-11
Merging edge (114065 114066) since length 0 << 1.99995e-11
Merging edge (114066 114067) since length 0 << 1.99995e-11
Merging edge (114067 114068) since length 0 << 1.99995e-11
Merging edge (114068 114069) since length 0 << 1.99995e-11
Merging edge (114069 114070) since length 0 << 1.99995e-11
Merging edge (114070 114071) since length 0 << 1.99995e-11
Merging edge (114071 114072) since length 0 << 1.99995e-11
Merging edge (114072 114073) since length 0 << 1.99995e-11
Merging edge (114073 114074) since length 0 << 1.99995e-11
Merging edge (114074 114075) since length 0 << 1.99995e-11
Merging edge (114075 114076) since length 0 << 1.99995e-11
Merging edge (114076 114077) since length 0 << 1.99995e-11
Merging edge (114077 114078) since length 0 << 1.99995e-11
Merging edge (114078 114079) since length 0 << 1.99995e-11
Merging edge (114079 114080) since length 0 << 1.99995e-11
Merging edge (114080 114081) since length 0 << 1.99995e-11
Merging edge (114081 114082) since length 0 << 1.99995e-11
Merging edge (114082 114083) since length 0 << 1.99995e-11
Merging edge (114083 114084) since length 0 << 1.99995e-11
Merging edge (114084 114085) since length 0 << 1.99995e-11
Merging edge (114085 114086) since length 0 << 1.99995e-11
Merging edge (114086 114087) since length 0 << 1.99995e-11
Merging edge (114087 114088) since length 0 << 1.99995e-11
Merging edge (114088 114089) since length 0 << 1.99995e-11
Merging edge (114089 114090) since length 0 << 1.99995e-11
Merging edge (114090 114091) since length 0 << 1.99995e-11
Merging edge (114091 114092) since length 0 << 1.99995e-11
Merging edge (114092 114093) since length 0 << 1.99995e-11
Merging edge (114093 114094) since length 0 << 1.99995e-11
Merging edge (114094 114095) since length 0 << 1.99995e-11
Merging edge (114095 114096) since length 0 << 1.99995e-11
Merging edge (114096 114097) since length 0 << 1.99995e-11
Merging edge (114097 114098) since length 0 << 1.99995e-11
Merging edge (114098 114099) since length 0 << 1.99995e-11
Merging edge (114099 114100) since length 0 << 1.99995e-11
Merging edge (114100 114101) since length 0 << 1.99995e-11
Merging edge (114101 114102) since length 0 << 1.99995e-11
Merging edge (114102 114103) since length 0 << 1.99995e-11
Merging edge (114103 114104) since length 0 << 1.99995e-11
Merging edge (114104 114105) since length 0 << 1.99995e-11
Merging edge (114105 114106) since length 0 << 1.99995e-11
Merging edge (114106 114107) since length 0 << 1.99995e-11
Merging edge (114107 114108) since length 0 << 1.99995e-11
Merging edge (114108 114109) since length 0 << 1.99995e-11
Merging edge (114109 114110) since length 0 << 1.99995e-11
Merging edge (114110 114111) since length 0 << 1.99995e-11
Merging edge (114111 114112) since length 0 << 1.99995e-11
Merging edge (114112 114113) since length 0 << 1.99995e-11
Merging edge (114113 114114) since length 0 << 1.99995e-11
Merging edge (114114 114115) since length 0 << 1.99995e-11
Merging edge (114115 114116) since length 0 << 1.99995e-11
Merging edge (114116 114117) since length 0 << 1.99995e-11
Merging edge (114117 114118) since length 0 << 1.99995e-11
Merging edge (114118 114119) since length 0 << 1.99995e-11
Merging edge (114119 114120) since length 0 << 1.99995e-11
Merging edge (114121 114122) since length 0 << 1.99995e-11
Merging edge (114122 114123) since length 0 << 1.99995e-11
Merging edge (114123 114124) since length 0 << 1.99995e-11
Merging edge (114124 114125) since length 0 << 1.99995e-11
Merging edge (114125 114126) since length 0 << 1.99995e-11
Merging edge (114126 114127) since length 0 << 1.99995e-11
Merging edge (114127 114128) since length 0 << 1.99995e-11
Merging edge (114128 114129) since length 0 << 1.99995e-11
Merging edge (114129 114130) since length 0 << 1.99995e-11
Merging edge (114130 114131) since length 0 << 1.99995e-11
Merging edge (114131 114132) since length 0 << 1.99995e-11
Merging edge (114132 114133) since length 0 << 1.99995e-11
Merging edge (114133 114134) since length 0 << 1.99995e-11
Merging edge (114134 114135) since length 0 << 1.99995e-11
Merging edge (114135 114136) since length 0 << 1.99995e-11
Merging edge (114136 114137) since length 0 << 1.99995e-11
Merging edge (114137 114138) since length 0 << 1.99995e-11
Merging edge (114138 114139) since length 0 << 1.99995e-11
Merging edge (114139 114140) since length 0 << 1.99995e-11
Merging edge (114140 114141) since length 0 << 1.99995e-11
Merging edge (114141 114142) since length 0 << 1.99995e-11
Merging edge (114142 114143) since length 0 << 1.99995e-11
Merging edge (114143 114144) since length 0 << 1.99995e-11
Merging edge (114144 114145) since length 0 << 1.99995e-11
Merging edge (114145 114146) since length 0 << 1.99995e-11
Merging edge (114146 114147) since length 0 << 1.99995e-11
Merging edge (114147 114148) since length 0 << 1.99995e-11
Merging edge (114148 114149) since length 0 << 1.99995e-11
Merging edge (114149 114150) since length 0 << 1.99995e-11
Merging edge (114150 114151) since length 0 << 1.99995e-11
Merging edge (114151 114152) since length 0 << 1.99995e-11
Merging edge (114152 114153) since length 0 << 1.99995e-11
Merging edge (114153 114154) since length 0 << 1.99995e-11
Merging edge (114154 114155) since length 0 << 1.99995e-11
Merging edge (114155 114156) since length 0 << 1.99995e-11
Merging edge (114156 114157) since length 0 << 1.99995e-11
Merging edge (114157 114158) since length 0 << 1.99995e-11
Merging edge (114158 114159) since length 0 << 1.99995e-11
Merging edge (114159 114160) since length 0 << 1.99995e-11
Merging edge (114160 114161) since length 0 << 1.99995e-11
Merging edge (114161 114162) since length 0 << 1.99995e-11
Merging edge (114162 114163) since length 0 << 1.99995e-11
Merging edge (114163 114164) since length 0 << 1.99995e-11
Merging edge (114164 114165) since length 0 << 1.99995e-11
Merging edge (114165 114166) since length 0 << 1.99995e-11
Merging edge (114166 114167) since length 0 << 1.99995e-11
Merging edge (114167 114168) since length 0 << 1.99995e-11
Merging edge (114168 114169) since length 0 << 1.99995e-11
Merging edge (114169 114170) since length 0 << 1.99995e-11
Merging edge (114170 114171) since length 0 << 1.99995e-11
Merging edge (114171 114172) since length 0 << 1.99995e-11
Merging edge (114172 114173) since length 0 << 1.99995e-11
Merging edge (114173 114174) since length 0 << 1.99995e-11
Merging edge (114174 114175) since length 0 << 1.99995e-11
Merging edge (114175 114176) since length 0 << 1.99995e-11
Merging edge (114176 114177) since length 0 << 1.99995e-11
Merging edge (114177 114178) since length 0 << 1.99995e-11
Merging edge (114178 114179) since length 0 << 1.99995e-11
Merging edge (114179 114180) since length 0 << 1.99995e-11
Merging edge (114180 114181) since length 0 << 1.99995e-11
Merging edge (114181 114182) since length 0 << 1.99995e-11
Merging edge (114182 114183) since length 0 << 1.99995e-11
Merging edge (114183 114184) since length 0 << 1.99995e-11
Merging edge (114184 114185) since length 0 << 1.99995e-11
Merging edge (114185 114186) since length 0 << 1.99995e-11
Merging edge (114186 114187) since length 0 << 1.99995e-11
Merging edge (114187 114188) since length 0 << 1.99995e-11
Merging edge (114188 114189) since length 0 << 1.99995e-11
Merging edge (114189 114190) since length 0 << 1.99995e-11
Merging edge (114190 114191) since length 0 << 1.99995e-11
Merging edge (114191 114192) since length 0 << 1.99995e-11
Merging edge (114192 114193) since length 0 << 1.99995e-11
Merging edge (114193 114194) since length 0 << 1.99995e-11
Merging edge (114194 114195) since length 0 << 1.99995e-11
Merging edge (114195 114196) since length 0 << 1.99995e-11
Merging edge (114196 114197) since length 0 << 1.99995e-11
Merging edge (114197 114198) since length 0 << 1.99995e-11
Merging edge (114198 114199) since length 0 << 1.99995e-11
Merging edge (114199 114200) since length 0 << 1.99995e-11
Merging edge (114200 114201) since length 0 << 1.99995e-11
Merging edge (114201 114202) since length 0 << 1.99995e-11
Merging edge (114202 114203) since length 0 << 1.99995e-11
Merging edge (114203 114204) since length 0 << 1.99995e-11
Merging edge (114204 114205) since length 0 << 1.99995e-11
Merging edge (114205 114206) since length 0 << 1.99995e-11
Merging edge (114206 114207) since length 0 << 1.99995e-11
Merging edge (114207 114208) since length 0 << 1.99995e-11
Merging edge (114208 114209) since length 0 << 1.99995e-11
Merging edge (114209 114210) since length 0 << 1.99995e-11
Merging edge (114210 114211) since length 0 << 1.99995e-11
Merging edge (114211 114212) since length 0 << 1.99995e-11
Merging edge (114212 114213) since length 0 << 1.99995e-11
Merging edge (114213 114214) since length 0 << 1.99995e-11
Merging edge (114214 114215) since length 0 << 1.99995e-11
Merging edge (114215 114216) since length 0 << 1.99995e-11
Merging edge (114216 114217) since length 0 << 1.99995e-11
Merging edge (114217 114218) since length 0 << 1.99995e-11
Merging edge (114218 114219) since length 0 << 1.99995e-11
Merging edge (114219 114220) since length 0 << 1.99995e-11
Merging edge (114220 114221) since length 0 << 1.99995e-11
Merging edge (114221 114222) since length 0 << 1.99995e-11
Merging edge (114222 114223) since length 0 << 1.99995e-11
Merging edge (114223 114224) since length 0 << 1.99995e-11
Merging edge (114224 114225) since length 0 << 1.99995e-11
Merging edge (114225 114226) since length 0 << 1.99995e-11
Merging edge (114226 114227) since length 0 << 1.99995e-11
Merging edge (114227 114228) since length 0 << 1.99995e-11
Merging edge (114228 114229) since length 0 << 1.99995e-11
Merging edge (114229 114230) since length 0 << 1.99995e-11
Merging edge (114230 114231) since length 0 << 1.99995e-11
Merging edge (114231 114232) since length 0 << 1.99995e-11
Merging edge (114232 114233) since length 0 << 1.99995e-11
Merging edge (114233 114234) since length 0 << 1.99995e-11
Merging edge (114234 114235) since length 0 << 1.99995e-11
Merging edge (114235 114236) since length 0 << 1.99995e-11
Merging edge (114236 114237) since length 0 << 1.99995e-11
Merging edge (114237 114238) since length 0 << 1.99995e-11
Merging edge (114238 114239) since length 0 << 1.99995e-11
Merging edge (114239 114240) since length 0 << 1.99995e-11
Merging edge (114240 114241) since length 0 << 1.99995e-11
Merging edge (114241 114242) since length 0 << 1.99995e-11
Merging edge (114242 114243) since length 0 << 1.99995e-11
Merging edge (114243 114244) since length 0 << 1.99995e-11
Merging edge (114244 114245) since length 0 << 1.99995e-11
Merging edge (114245 114246) since length 0 << 1.99995e-11
Merging edge (114246 114247) since length 0 << 1.99995e-11
Merging edge (114247 114248) since length 0 << 1.99995e-11
Merging edge (114248 114249) since length 0 << 1.99995e-11
Merging edge (114249 114250) since length 0 << 1.99995e-11
Merging edge (114250 114251) since length 0 << 1.99995e-11
Merging edge (114251 114252) since length 0 << 1.99995e-11
Merging edge (114252 114253) since length 0 << 1.99995e-11
Merging edge (114253 114254) since length 0 << 1.99995e-11
Merging edge (114254 114255) since length 0 << 1.99995e-11
Merging edge (114255 114256) since length 0 << 1.99995e-11
Merging edge (114256 114257) since length 0 << 1.99995e-11
Merging edge (114257 114258) since length 0 << 1.99995e-11
Merging edge (114258 114259) since length 0 << 1.99995e-11
Merging edge (114259 114260) since length 0 << 1.99995e-11
Merging edge (114260 114261) since length 0 << 1.99995e-11
Merging edge (114261 114262) since length 0 << 1.99995e-11
Merging edge (114262 114263) since length 0 << 1.99995e-11
Merging edge (114263 114264) since length 0 << 1.99995e-11
Merging edge (114265 114266) since length 0 << 1.99995e-11
Merging edge (114266 114267) since length 0 << 1.99995e-11
Merging edge (114267 114268) since length 0 << 1.99995e-11
Merging edge (114268 114269) since length 0 << 1.99995e-11
Merging edge (114269 114270) since length 0 << 1.99995e-11
Merging edge (114270 114271) since length 0 << 1.99995e-11
Merging edge (114271 114272) since length 0 << 1.99995e-11
Merging edge (114272 114273) since length 0 << 1.99995e-11
Merging edge (114273 114274) since length 0 << 1.99995e-11
Merging edge (114274 114275) since length 0 << 1.99995e-11
Merging edge (114275 114276) since length 0 << 1.99995e-11
Merging edge (114276 114277) since length 0 << 1.99995e-11
Merging edge (114277 114278) since length 0 << 1.99995e-11
Merging edge (114278 114279) since length 0 << 1.99995e-11
Merging edge (114279 114280) since length 0 << 1.99995e-11
Merging edge (114280 114281) since length 0 << 1.99995e-11
Merging edge (114281 114282) since length 0 << 1.99995e-11
Merging edge (114282 114283) since length 0 << 1.99995e-11
Merging edge (114283 114284) since length 0 << 1.99995e-11
Merging edge (114284 114285) since length 0 << 1.99995e-11
Merging edge (114285 114286) since length 0 << 1.99995e-11
Merging edge (114286 114287) since length 0 << 1.99995e-11
Merging edge (114287 114288) since length 0 << 1.99995e-11
Merging edge (114288 114289) since length 0 << 1.99995e-11
Merging edge (114289 114290) since length 0 << 1.99995e-11
Merging edge (114290 114291) since length 0 << 1.99995e-11
Merging edge (114291 114292) since length 0 << 1.99995e-11
Merging edge (114292 114293) since length 0 << 1.99995e-11
Merging edge (114293 114294) since length 0 << 1.99995e-11
Merging edge (114294 114295) since length 0 << 1.99995e-11
Merging edge (114295 114296) since length 0 << 1.99995e-11
Merging edge (114296 114297) since length 0 << 1.99995e-11
Merging edge (114297 114298) since length 0 << 1.99995e-11
Merging edge (114298 114299) since length 0 << 1.99995e-11
Merging edge (114299 114300) since length 0 << 1.99995e-11
Merging edge (114300 114301) since length 0 << 1.99995e-11
Merging edge (114301 114302) since length 0 << 1.99995e-11
Merging edge (114302 114303) since length 0 << 1.99995e-11
Merging edge (114303 114304) since length 0 << 1.99995e-11
Merging edge (114304 114305) since length 0 << 1.99995e-11
Merging edge (114305 114306) since length 0 << 1.99995e-11
Merging edge (114306 114307) since length 0 << 1.99995e-11
Merging edge (114307 114308) since length 0 << 1.99995e-11
Merging edge (114308 114309) since length 0 << 1.99995e-11
Merging edge (114309 114310) since length 0 << 1.99995e-11
Merging edge (114310 114311) since length 0 << 1.99995e-11
Merging edge (114311 114312) since length 0 << 1.99995e-11
Merging edge (114312 114313) since length 0 << 1.99995e-11
Merging edge (114313 114314) since length 0 << 1.99995e-11
Merging edge (114314 114315) since length 0 << 1.99995e-11
Merging edge (114315 114316) since length 0 << 1.99995e-11
Merging edge (114316 114317) since length 0 << 1.99995e-11
Merging edge (114317 114318) since length 0 << 1.99995e-11
Merging edge (114318 114319) since length 0 << 1.99995e-11
Merging edge (114319 114320) since length 0 << 1.99995e-11
Merging edge (114320 114321) since length 0 << 1.99995e-11
Merging edge (114321 114322) since length 0 << 1.99995e-11
Merging edge (114322 114323) since length 0 << 1.99995e-11
Merging edge (114323 114324) since length 0 << 1.99995e-11
Merging edge (114324 114325) since length 0 << 1.99995e-11
Merging edge (114325 114326) since length 0 << 1.99995e-11
Merging edge (114326 114327) since length 0 << 1.99995e-11
Merging edge (114327 114328) since length 0 << 1.99995e-11
Merging edge (114328 114329) since length 0 << 1.99995e-11
Merging edge (114329 114330) since length 0 << 1.99995e-11
Merging edge (114330 114331) since length 0 << 1.99995e-11
Merging edge (114331 114332) since length 0 << 1.99995e-11
Merging edge (114332 114333) since length 0 << 1.99995e-11
Merging edge (114333 114334) since length 0 << 1.99995e-11
Merging edge (114334 114335) since length 0 << 1.99995e-11
Merging edge (114335 114336) since length 0 << 1.99995e-11
Merging edge (114336 114337) since length 0 << 1.99995e-11
Merging edge (114337 114338) since length 0 << 1.99995e-11
Merging edge (114338 114339) since length 0 << 1.99995e-11
Merging edge (114339 114340) since length 0 << 1.99995e-11
Merging edge (114340 114341) since length 0 << 1.99995e-11
Merging edge (114341 114342) since length 0 << 1.99995e-11
Merging edge (114342 114343) since length 0 << 1.99995e-11
Merging edge (114343 114344) since length 0 << 1.99995e-11
Merging edge (114344 114345) since length 0 << 1.99995e-11
Merging edge (114345 114346) since length 0 << 1.99995e-11
Merging edge (114346 114347) since length 0 << 1.99995e-11
Merging edge (114347 114348) since length 0 << 1.99995e-11
Merging edge (114348 114349) since length 0 << 1.99995e-11
Merging edge (114349 114350) since length 0 << 1.99995e-11
Merging edge (114350 114351) since length 0 << 1.99995e-11
Merging edge (114351 114352) since length 0 << 1.99995e-11
Merging edge (114352 114353) since length 0 << 1.99995e-11
Merging edge (114353 114354) since length 0 << 1.99995e-11
Merging edge (114354 114355) since length 0 << 1.99995e-11
Merging edge (114355 114356) since length 0 << 1.99995e-11
Merging edge (114356 114357) since length 0 << 1.99995e-11
Merging edge (114357 114358) since length 0 << 1.99995e-11
Merging edge (114358 114359) since length 0 << 1.99995e-11
Merging edge (114359 114360) since length 0 << 1.99995e-11
Merging edge (114360 114361) since length 0 << 1.99995e-11
Merging edge (114361 114362) since length 0 << 1.99995e-11
Merging edge (114362 114363) since length 0 << 1.99995e-11
Merging edge (114363 114364) since length 0 << 1.99995e-11
Merging edge (114364 114365) since length 0 << 1.99995e-11
Merging edge (114365 114366) since length 0 << 1.99995e-11
Merging edge (114366 114367) since length 0 << 1.99995e-11
Merging edge (114367 114368) since length 0 << 1.99995e-11
Merging edge (114368 114369) since length 0 << 1.99995e-11
Merging edge (114369 114370) since length 0 << 1.99995e-11
Merging edge (114370 114371) since length 0 << 1.99995e-11
Merging edge (114371 114372) since length 0 << 1.99995e-11
Merging edge (114372 114373) since length 0 << 1.99995e-11
Merging edge (114373 114374) since length 0 << 1.99995e-11
Merging edge (114374 114375) since length 0 << 1.99995e-11
Merging edge (114375 114376) since length 0 << 1.99995e-11
Merging edge (114376 114377) since length 0 << 1.99995e-11
Merging edge (114377 114378) since length 0 << 1.99995e-11
Merging edge (114378 114379) since length 0 << 1.99995e-11
Merging edge (114379 114380) since length 0 << 1.99995e-11
Merging edge (114380 114381) since length 0 << 1.99995e-11
Merging edge (114381 114382) since length 0 << 1.99995e-11
Merging edge (114382 114383) since length 0 << 1.99995e-11
Merging edge (114383 114384) since length 0 << 1.99995e-11
Merging edge (114384 114385) since length 0 << 1.99995e-11
Merging edge (114385 114386) since length 0 << 1.99995e-11
Merging edge (114386 114387) since length 0 << 1.99995e-11
Merging edge (114387 114388) since length 0 << 1.99995e-11
Merging edge (114388 114389) since length 0 << 1.99995e-11
Merging edge (114389 114390) since length 0 << 1.99995e-11
Merging edge (114390 114391) since length 0 << 1.99995e-11
Merging edge (114391 114392) since length 0 << 1.99995e-11
Merging edge (114392 114393) since length 0 << 1.99995e-11
Merging edge (114393 114394) since length 0 << 1.99995e-11
Merging edge (114394 114395) since length 0 << 1.99995e-11
Merging edge (114395 114396) since length 0 << 1.99995e-11
Merging edge (114396 114397) since length 0 << 1.99995e-11
Merging edge (114397 114398) since length 0 << 1.99995e-11
Merging edge (114398 114399) since length 0 << 1.99995e-11
Merging edge (114399 114400) since length 0 << 1.99995e-11
Merging edge (114400 114401) since length 0 << 1.99995e-11
Merging edge (114401 114402) since length 0 << 1.99995e-11
Merging edge (114402 114403) since length 0 << 1.99995e-11
Merging edge (114403 114404) since length 0 << 1.99995e-11
Merging edge (114404 114405) since length 0 << 1.99995e-11
Merging edge (114405 114406) since length 0 << 1.99995e-11
Merging edge (114406 114407) since length 0 << 1.99995e-11
Merging edge (114407 114408) since length 0 << 1.99995e-11
Merging edge (114409 114410) since length 0 << 1.99995e-11
Merging edge (114410 114411) since length 0 << 1.99995e-11
Merging edge (114411 114412) since length 0 << 1.99995e-11
Merging edge (114412 114413) since length 0 << 1.99995e-11
Merging edge (114413 114414) since length 0 << 1.99995e-11
Merging edge (114414 114415) since length 0 << 1.99995e-11
Merging edge (114415 114416) since length 0 << 1.99995e-11
Merging edge (114416 114417) since length 0 << 1.99995e-11
Merging edge (114417 114418) since length 0 << 1.99995e-11
Merging edge (114418 114419) since length 0 << 1.99995e-11
Merging edge (114419 114420) since length 0 << 1.99995e-11
Merging edge (114420 114421) since length 0 << 1.99995e-11
Merging edge (114421 114422) since length 0 << 1.99995e-11
Merging edge (114422 114423) since length 0 << 1.99995e-11
Merging edge (114423 114424) since length 0 << 1.99995e-11
Merging edge (114424 114425) since length 0 << 1.99995e-11
Merging edge (114425 114426) since length 0 << 1.99995e-11
Merging edge (114426 114427) since length 0 << 1.99995e-11
Merging edge (114427 114428) since length 0 << 1.99995e-11
Merging edge (114428 114429) since length 0 << 1.99995e-11
Merging edge (114429 114430) since length 0 << 1.99995e-11
[...]
Merging edge (114651 114652) since length 0 << 1.99995e-11
Merging edge (114652 114653) since length 0 << 1.99995e-11
Merging edge (114653 114654) since length 0 << 1.99995e-11
Merging edge (114654 114655) since length 0 << 1.99995e-11
Merging edge (114655 114656) since length 0 << 1.99995e-11
Merging edge (114656 114657) since length 0 << 1.99995e-11
Merging edge (114657 114658) since length 0 << 1.99995e-11
Merging edge (114658 114659) since length 0 << 1.99995e-11
Merging edge (114659 114660) since length 0 << 1.99995e-11
Merging edge (114660 114661) since length 0 << 1.99995e-11
Merging edge (114661 114662) since length 0 << 1.99995e-11
Merging edge (114662 114663) since length 0 << 1.99995e-11
Merging edge (114663 114664) since length 0 << 1.99995e-11
Merging edge (114664 114665) since length 0 << 1.99995e-11
Merging edge (114665 114666) since length 0 << 1.99995e-11
Merging edge (114666 114667) since length 0 << 1.99995e-11
Merging edge (114667 114668) since length 0 << 1.99995e-11
Merging edge (114668 114669) since length 0 << 1.99995e-11
Merging edge (114669 114670) since length 0 << 1.99995e-11
Merging edge (114670 114671) since length 0 << 1.99995e-11
Merging edge (114671 114672) since length 0 << 1.99995e-11
Merging edge (114672 114673) since length 0 << 1.99995e-11
Merging edge (114673 114674) since length 0 << 1.99995e-11
Merging edge (114674 114675) since length 0 << 1.99995e-11
Merging edge (114675 114676) since length 0 << 1.99995e-11
Merging edge (114676 114677) since length 0 << 1.99995e-11
Merging edge (114677 114678) since length 0 << 1.99995e-11
Merging edge (114678 114679) since length 0 << 1.99995e-11
Merging edge (114679 114680) since length 0 << 1.99995e-11
Merging edge (114680 114681) since length 0 << 1.99995e-11
Merging edge (114681 114682) since length 0 << 1.99995e-11
Merging edge (114682 114683) since length 0 << 1.99995e-11
Merging edge (114683 114684) since length 0 << 1.99995e-11
Merging edge (114684 114685) since length 0 << 1.99995e-11
Merging edge (114685 114686) since length 0 << 1.99995e-11
Merging edge (114686 114687) since length 0 << 1.99995e-11
Merging edge (114687 114688) since length 0 << 1.99995e-11
Merging edge (114688 114689) since length 0 << 1.99995e-11
Merging edge (114689 114690) since length 0 << 1.99995e-11
Merging edge (114690 114691) since length 0 << 1.99995e-11
Merging edge (114691 114692) since length 0 << 1.99995e-11
Merging edge (114692 114693) since length 0 << 1.99995e-11
Merging edge (114693 114694) since length 0 << 1.99995e-11
Merging edge (114694 114695) since length 0 << 1.99995e-11
Merging edge (114695 114696) since length 0 << 1.99995e-11
Merging edge (114697 114698) since length 0 << 1.99995e-11
Merging edge (114698 114699) since length 0 << 1.99995e-11
Merging edge (114699 114700) since length 0 << 1.99995e-11
Merging edge (114700 114701) since length 0 << 1.99995e-11
Merging edge (114701 114702) since length 0 << 1.99995e-11
Merging edge (114702 114703) since length 0 << 1.99995e-11
Merging edge (114703 114704) since length 0 << 1.99995e-11
Merging edge (114704 114705) since length 0 << 1.99995e-11
Merging edge (114705 114706) since length 0 << 1.99995e-11
Merging edge (114706 114707) since length 0 << 1.99995e-11
Merging edge (114707 114708) since length 0 << 1.99995e-11
Merging edge (114708 114709) since length 0 << 1.99995e-11
Merging edge (114709 114710) since length 0 << 1.99995e-11
Merging edge (114710 114711) since length 0 << 1.99995e-11
Merging edge (114711 114712) since length 0 << 1.99995e-11
Merging edge (114712 114713) since length 0 << 1.99995e-11
Merging edge (114713 114714) since length 0 << 1.99995e-11
Merging edge (114714 114715) since length 0 << 1.99995e-11
Merging edge (114715 114716) since length 0 << 1.99995e-11
Merging edge (114716 114717) since length 0 << 1.99995e-11
Merging edge (114717 114718) since length 0 << 1.99995e-11
Merging edge (114718 114719) since length 0 << 1.99995e-11
Merging edge (114719 114720) since length 0 << 1.99995e-11
Merging edge (114720 114721) since length 0 << 1.99995e-11
Merging edge (114721 114722) since length 0 << 1.99995e-11
Merging edge (114722 114723) since length 0 << 1.99995e-11
Merging edge (114723 114724) since length 0 << 1.99995e-11
Merging edge (114724 114725) since length 0 << 1.99995e-11
Merging edge (114725 114726) since length 0 << 1.99995e-11
Merging edge (114726 114727) since length 0 << 1.99995e-11
Merging edge (114727 114728) since length 0 << 1.99995e-11
Merging edge (114728 114729) since length 0 << 1.99995e-11
Merging edge (114729 114730) since length 0 << 1.99995e-11
Merging edge (114730 114731) since length 0 << 1.99995e-11
Merging edge (114731 114732) since length 0 << 1.99995e-11
Merging edge (114732 114733) since length 0 << 1.99995e-11
Merging edge (114733 114734) since length 0 << 1.99995e-11
Merging edge (114734 114735) since length 0 << 1.99995e-11
Merging edge (114735 114736) since length 0 << 1.99995e-11
Merging edge (114736 114737) since length 0 << 1.99995e-11
Merging edge (114737 114738) since length 0 << 1.99995e-11
Merging edge (114738 114739) since length 0 << 1.99995e-11
Merging edge (114739 114740) since length 0 << 1.99995e-11
Merging edge (114740 114741) since length 0 << 1.99995e-11
Merging edge (114741 114742) since length 0 << 1.99995e-11
Merging edge (114742 114743) since length 0 << 1.99995e-11
Merging edge (114743 114744) since length 0 << 1.99995e-11
Merging edge (114744 114745) since length 0 << 1.99995e-11
Merging edge (114745 114746) since length 0 << 1.99995e-11
Merging edge (114746 114747) since length 0 << 1.99995e-11
Merging edge (114747 114748) since length 0 << 1.99995e-11
Merging edge (114748 114749) since length 0 << 1.99995e-11
Merging edge (114749 114750) since length 0 << 1.99995e-11
Merging edge (114750 114751) since length 0 << 1.99995e-11
Merging edge (114751 114752) since length 0 << 1.99995e-11
Merging edge (114752 114753) since length 0 << 1.99995e-11
Merging edge (114753 114754) since length 0 << 1.99995e-11
Merging edge (114754 114755) since length 0 << 1.99995e-11
Merging edge (114755 114756) since length 0 << 1.99995e-11
Merging edge (114756 114757) since length 0 << 1.99995e-11
Merging edge (114757 114758) since length 0 << 1.99995e-11
Merging edge (114758 114759) since length 0 << 1.99995e-11
Merging edge (114759 114760) since length 0 << 1.99995e-11
Merging edge (114760 114761) since length 0 << 1.99995e-11
Merging edge (114761 114762) since length 0 << 1.99995e-11
Merging edge (114762 114763) since length 0 << 1.99995e-11
Merging edge (114763 114764) since length 0 << 1.99995e-11
Merging edge (114764 114765) since length 0 << 1.99995e-11
Merging edge (114765 114766) since length 0 << 1.99995e-11
Merging edge (114766 114767) since length 0 << 1.99995e-11
Merging edge (114767 114768) since length 0 << 1.99995e-11
Merging edge (114768 114769) since length 0 << 1.99995e-11
Merging edge (114769 114770) since length 0 << 1.99995e-11
Merging edge (114770 114771) since length 0 << 1.99995e-11
Merging edge (114771 114772) since length 0 << 1.99995e-11
Merging edge (114772 114773) since length 0 << 1.99995e-11
Merging edge (114773 114774) since length 0 << 1.99995e-11
Merging edge (114774 114775) since length 0 << 1.99995e-11
Merging edge (114775 114776) since length 0 << 1.99995e-11
Merging edge (114776 114777) since length 0 << 1.99995e-11
Merging edge (114777 114778) since length 0 << 1.99995e-11
Merging edge (114778 114779) since length 0 << 1.99995e-11
Merging edge (114779 114780) since length 0 << 1.99995e-11
Merging edge (114780 114781) since length 0 << 1.99995e-11
Merging edge (114781 114782) since length 0 << 1.99995e-11
Merging edge (114782 114783) since length 0 << 1.99995e-11
Merging edge (114783 114784) since length 0 << 1.99995e-11
Merging edge (114784 114785) since length 0 << 1.99995e-11
Merging edge (114785 114786) since length 0 << 1.99995e-11
Merging edge (114786 114787) since length 0 << 1.99995e-11
Merging edge (114787 114788) since length 0 << 1.99995e-11
Merging edge (114788 114789) since length 0 << 1.99995e-11
Merging edge (114789 114790) since length 0 << 1.99995e-11
Merging edge (114790 114791) since length 0 << 1.99995e-11
Merging edge (114791 114792) since length 0 << 1.99995e-11
Merging edge (114792 114793) since length 0 << 1.99995e-11
Merging edge (114793 114794) since length 0 << 1.99995e-11
Merging edge (114794 114795) since length 0 << 1.99995e-11
Merging edge (114795 114796) since length 0 << 1.99995e-11
Merging edge (114796 114797) since length 0 << 1.99995e-11
Merging edge (114797 114798) since length 0 << 1.99995e-11
Merging edge (114798 114799) since length 0 << 1.99995e-11
Merging edge (114799 114800) since length 0 << 1.99995e-11
Merging edge (114800 114801) since length 0 << 1.99995e-11
Merging edge (114801 114802) since length 0 << 1.99995e-11
Merging edge (114802 114803) since length 0 << 1.99995e-11
Merging edge (114803 114804) since length 0 << 1.99995e-11
Merging edge (114804 114805) since length 0 << 1.99995e-11
Merging edge (114805 114806) since length 0 << 1.99995e-11
Merging edge (114806 114807) since length 0 << 1.99995e-11
Merging edge (114807 114808) since length 0 << 1.99995e-11
Merging edge (114808 114809) since length 0 << 1.99995e-11
Merging edge (114809 114810) since length 0 << 1.99995e-11
Merging edge (114810 114811) since length 0 << 1.99995e-11
Merging edge (114811 114812) since length 0 << 1.99995e-11
Merging edge (114812 114813) since length 0 << 1.99995e-11
Merging edge (114813 114814) since length 0 << 1.99995e-11
Merging edge (114814 114815) since length 0 << 1.99995e-11
Merging edge (114815 114816) since length 0 << 1.99995e-11
Merging edge (114816 114817) since length 0 << 1.99995e-11
Merging edge (114817 114818) since length 0 << 1.99995e-11
Merging edge (114818 114819) since length 0 << 1.99995e-11
Merging edge (114819 114820) since length 0 << 1.99995e-11
Merging edge (114820 114821) since length 0 << 1.99995e-11
Merging edge (114821 114822) since length 0 << 1.99995e-11
Merging edge (114822 114823) since length 0 << 1.99995e-11
Merging edge (114823 114824) since length 0 << 1.99995e-11
Merging edge (114824 114825) since length 0 << 1.99995e-11
Merging edge (114825 114826) since length 0 << 1.99995e-11
Merging edge (114826 114827) since length 0 << 1.99995e-11
Merging edge (114827 114828) since length 0 << 1.99995e-11
Merging edge (114828 114829) since length 0 << 1.99995e-11
Merging edge (114829 114830) since length 0 << 1.99995e-11
Merging edge (114830 114831) since length 0 << 1.99995e-11
Merging edge (114831 114832) since length 0 << 1.99995e-11
Merging edge (114832 114833) since length 0 << 1.99995e-11
Merging edge (114833 114834) since length 0 << 1.99995e-11
Merging edge (114834 114835) since length 0 << 1.99995e-11
Merging edge (114835 114836) since length 0 << 1.99995e-11
Merging edge (114836 114837) since length 0 << 1.99995e-11
Merging edge (114837 114838) since length 0 << 1.99995e-11
Merging edge (114838 114839) since length 0 << 1.99995e-11
Merging edge (114839 114840) since length 0 << 1.99995e-11
Merging edge (114841 114842) since length 0 << 1.99995e-11
Merging edge (114842 114843) since length 0 << 1.99995e-11
Merging edge (114843 114844) since length 0 << 1.99995e-11
Merging edge (114844 114845) since length 0 << 1.99995e-11
Merging edge (114845 114846) since length 0 << 1.99995e-11
Merging edge (114846 114847) since length 0 << 1.99995e-11
Merging edge (114847 114848) since length 0 << 1.99995e-11
Merging edge (114848 114849) since length 0 << 1.99995e-11
Merging edge (114849 114850) since length 0 << 1.99995e-11
Merging edge (114850 114851) since length 0 << 1.99995e-11
Merging edge (114851 114852) since length 0 << 1.99995e-11
Merging edge (114852 114853) since length 0 << 1.99995e-11
Merging edge (114853 114854) since length 0 << 1.99995e-11
Merging edge (114854 114855) since length 0 << 1.99995e-11
Merging edge (114855 114856) since length 0 << 1.99995e-11
Merging edge (114856 114857) since length 0 << 1.99995e-11
Merging edge (114857 114858) since length 0 << 1.99995e-11
Merging edge (114858 114859) since length 0 << 1.99995e-11
Merging edge (114859 114860) since length 0 << 1.99995e-11
Merging edge (114860 114861) since length 0 << 1.99995e-11
Merging edge (114861 114862) since length 0 << 1.99995e-11
Merging edge (114862 114863) since length 0 << 1.99995e-11
Merging edge (114863 114864) since length 0 << 1.99995e-11
Merging edge (114864 114865) since length 0 << 1.99995e-11
Merging edge (114865 114866) since length 0 << 1.99995e-11
Merging edge (114866 114867) since length 0 << 1.99995e-11
Merging edge (114867 114868) since length 0 << 1.99995e-11
Merging edge (114868 114869) since length 0 << 1.99995e-11
Merging edge (114869 114870) since length 0 << 1.99995e-11
Merging edge (114870 114871) since length 0 << 1.99995e-11
Merging edge (114871 114872) since length 0 << 1.99995e-11
Merging edge (114872 114873) since length 0 << 1.99995e-11
Merging edge (114873 114874) since length 0 << 1.99995e-11
Merging edge (114874 114875) since length 0 << 1.99995e-11
Merging edge (114875 114876) since length 0 << 1.99995e-11
Merging edge (114876 114877) since length 0 << 1.99995e-11
Merging edge (114877 114878) since length 0 << 1.99995e-11
Merging edge (114878 114879) since length 0 << 1.99995e-11
Merging edge (114879 114880) since length 0 << 1.99995e-11
Merging edge (114880 114881) since length 0 << 1.99995e-11
Merging edge (114881 114882) since length 0 << 1.99995e-11
Merging edge (114882 114883) since length 0 << 1.99995e-11
Merging edge (114883 114884) since length 0 << 1.99995e-11
Merging edge (114884 114885) since length 0 << 1.99995e-11
Merging edge (114885 114886) since length 0 << 1.99995e-11
Merging edge (114886 114887) since length 0 << 1.99995e-11
Merging edge (114887 114888) since length 0 << 1.99995e-11
Merging edge (114888 114889) since length 0 << 1.99995e-11
Merging edge (114889 114890) since length 0 << 1.99995e-11
Merging edge (114890 114891) since length 0 << 1.99995e-11
Merging edge (114891 114892) since length 0 << 1.99995e-11
Merging edge (114892 114893) since length 0 << 1.99995e-11
Merging edge (114893 114894) since length 0 << 1.99995e-11
Merging edge (114894 114895) since length 0 << 1.99995e-11
Merging edge (114895 114896) since length 0 << 1.99995e-11
Merging edge (114896 114897) since length 0 << 1.99995e-11
Merging edge (114897 114898) since length 0 << 1.99995e-11
Merging edge (114898 114899) since length 0 << 1.99995e-11
Merging edge (114899 114900) since length 0 << 1.99995e-11
Merging edge (114900 114901) since length 0 << 1.99995e-11
Merging edge (114901 114902) since length 0 << 1.99995e-11
Merging edge (114902 114903) since length 0 << 1.99995e-11
Merging edge (114903 114904) since length 0 << 1.99995e-11
Merging edge (114904 114905) since length 0 << 1.99995e-11
Merging edge (114905 114906) since length 0 << 1.99995e-11
Merging edge (114906 114907) since length 0 << 1.99995e-11
Merging edge (114907 114908) since length 0 << 1.99995e-11
Merging edge (114908 114909) since length 0 << 1.99995e-11
Merging edge (114909 114910) since length 0 << 1.99995e-11
Merging edge (114910 114911) since length 0 << 1.99995e-11
Merging edge (114911 114912) since length 0 << 1.99995e-11
Merging edge (114912 114913) since length 0 << 1.99995e-11
Merging edge (114913 114914) since length 0 << 1.99995e-11
Merging edge (114914 114915) since length 0 << 1.99995e-11
Merging edge (114915 114916) since length 0 << 1.99995e-11
Merging edge (114916 114917) since length 0 << 1.99995e-11
Merging edge (114917 114918) since length 0 << 1.99995e-11
Merging edge (114918 114919) since length 0 << 1.99995e-11
Merging edge (114919 114920) since length 0 << 1.99995e-11
Merging edge (114920 114921) since length 0 << 1.99995e-11
Merging edge (114921 114922) since length 0 << 1.99995e-11
Merging edge (114922 114923) since length 0 << 1.99995e-11
Merging edge (114923 114924) since length 0 << 1.99995e-11
Merging edge (114924 114925) since length 0 << 1.99995e-11
Merging edge (114925 114926) since length 0 << 1.99995e-11
Merging edge (114926 114927) since length 0 << 1.99995e-11
Merging edge (114927 114928) since length 0 << 1.99995e-11
Merging edge (114928 114929) since length 0 << 1.99995e-11
Merging edge (114929 114930) since length 0 << 1.99995e-11
Merging edge (114930 114931) since length 0 << 1.99995e-11
Merging edge (114931 114932) since length 0 << 1.99995e-11
Merging edge (114932 114933) since length 0 << 1.99995e-11
Merging edge (114933 114934) since length 0 << 1.99995e-11
Merging edge (114934 114935) since length 0 << 1.99995e-11
Merging edge (114935 114936) since length 0 << 1.99995e-11
Merging edge (114936 114937) since length 0 << 1.99995e-11
Merging edge (114937 114938) since length 0 << 1.99995e-11
Merging edge (114938 114939) since length 0 << 1.99995e-11
Merging edge (114939 114940) since length 0 << 1.99995e-11
Merging edge (114940 114941) since length 0 << 1.99995e-11
Merging edge (114941 114942) since length 0 << 1.99995e-11
Merging edge (114942 114943) since length 0 << 1.99995e-11
Merging edge (114943 114944) since length 0 << 1.99995e-11
Merging edge (114944 114945) since length 0 << 1.99995e-11
Merging edge (114945 114946) since length 0 << 1.99995e-11
Merging edge (114946 114947) since length 0 << 1.99995e-11
Merging edge (114947 114948) since length 0 << 1.99995e-11
Merging edge (114948 114949) since length 0 << 1.99995e-11
Merging edge (114949 114950) since length 0 << 1.99995e-11
Merging edge (114950 114951) since length 0 << 1.99995e-11
Merging edge (114951 114952) since length 0 << 1.99995e-11
Merging edge (114952 114953) since length 0 << 1.99995e-11
Merging edge (114953 114954) since length 0 << 1.99995e-11
Merging edge (114954 114955) since length 0 << 1.99995e-11
Merging edge (114955 114956) since length 0 << 1.99995e-11
Merging edge (114956 114957) since length 0 << 1.99995e-11
Merging edge (114957 114958) since length 0 << 1.99995e-11
Merging edge (114958 114959) since length 0 << 1.99995e-11
Merging edge (114959 114960) since length 0 << 1.99995e-11
Merging edge (114960 114961) since length 0 << 1.99995e-11
Merging edge (114961 114962) since length 0 << 1.99995e-11
Merging edge (114962 114963) since length 0 << 1.99995e-11
Merging edge (114963 114964) since length 0 << 1.99995e-11
Merging edge (114964 114965) since length 0 << 1.99995e-11
Merging edge (114965 114966) since length 0 << 1.99995e-11
Merging edge (114966 114967) since length 0 << 1.99995e-11
Merging edge (114967 114968) since length 0 << 1.99995e-11
Merging edge (114968 114969) since length 0 << 1.99995e-11
Merging edge (114969 114970) since length 0 << 1.99995e-11
Merging edge (114970 114971) since length 0 << 1.99995e-11
Merging edge (114971 114972) since length 0 << 1.99995e-11
Merging edge (114972 114973) since length 0 << 1.99995e-11
Merging edge (114973 114974) since length 0 << 1.99995e-11
Merging edge (114974 114975) since length 0 << 1.99995e-11
Merging edge (114975 114976) since length 0 << 1.99995e-11
Merging edge (114976 114977) since length 0 << 1.99995e-11
Merging edge (114977 114978) since length 0 << 1.99995e-11
Merging edge (114978 114979) since length 0 << 1.99995e-11
Merging edge (114979 114980) since length 0 << 1.99995e-11
Merging edge (114980 114981) since length 0 << 1.99995e-11
Merging edge (114981 114982) since length 0 << 1.99995e-11
Merging edge (114982 114983) since length 0 << 1.99995e-11
Merging edge (114983 114984) since length 0 << 1.99995e-11
            Uncollapsed edges = 0 / 333432
    Number of points : 114985
    Not visited      : 0
    Not collapsed    : 113100
    Collapsed        : 1885

Collapsing 0 cells
Assuming full 360 degree axisymmetric case; stitching faces on patches top and top together ...

Writing mesh to "/Volumes/OpenFoam/aaronmullen-hales-v2312/run/PHDS1/cardiacFoam/tutorials/LandEtAl2015/problem2/run_Apple_M4_Pro_20250318_150243/hex.seg.3/constant/region0"

End

