/*---------------------------------------------------------------------------*\
| =========                 |                                                 |
| \\      /  F ield         | OpenFOAM: The Open Source CFD Toolbox           |
|  \\    /   O peration     | Version:  2312                                  |
|   \\  /    A nd           | Website:  www.openfoam.com                      |
|    \\/     M anipulation  |                                                 |
\*---------------------------------------------------------------------------*/
Build  : 39362aec25-20240625 OPENFOAM=2312 patch=240625 version=v2312
Arch   : "LSB;label=32;scalar=64"
Exec   : extractIdealisedVentricleResults
Date   : Mar 18 2025
Time   : 15:02:46
Host   : Aarons-MacBook-Pro.local
PID    : 7415
I/O    : uncollated
Case   : /Volumes/OpenFoam/aaronmullen-hales-v2312/run/PHDS1/cardiacFoam/tutorials/LandEtAl2015/problem2/run_Apple_M4_Pro_20250318_150243/hex.hypre.3
nProcs : 1
trapFpe: Floating point exception trapping enabled (FOAM_SIGFPE).
fileModificationChecking : Monitoring run-time modified files using timeStampMaster (fileModificationSkew 5, maxFileModificationPolls 20)
allowSystemOperations : Allowing user-supplied system call operations

// * * * * * * * * * * * * * * * * * * * * * * * * * * * * * * * * * * * * * //
Create time

Create mesh for time = 0

Time = 0

Creating fixedDisplacement boundary condition
Creating solidTraction boundary condition
    pressure is time-varying
Creating solidTraction boundary condition

Apex:
    inside = -0.017
    outside = -0.02

Writing the deformed midline coordinates to midLineDeformed.txt

End

