/*---------------------------------------------------------------------------*\
| =========                 |                                                 |
| \\      /  F ield         | OpenFOAM: The Open Source CFD Toolbox           |
|  \\    /   O peration     | Version:  2312                                  |
|   \\  /    A nd           | Website:  www.openfoam.com                      |
|    \\/     M anipulation  |                                                 |
\*---------------------------------------------------------------------------*/
Build  : 39362aec25-20240625 OPENFOAM=2312 patch=240625 version=v2312
Arch   : "LSB;label=32;scalar=64"
Exec   : extractIdealisedVentricleResults
Date   : Apr 15 2025
Time   : 15:34:59
Host   : Aarons-MacBook-Pro.local
PID    : 14520
I/O    : uncollated
Case   : /Volumes/OpenFoam/aaronmullen-hales-v2312/run/PHDS1/cardiacFoam/tutorials/LandEtAl2015/problem3/run_Apple_M4_Pro_20250415_153407/hex.hypre.1
nProcs : 1
trapFpe: Floating point exception trapping enabled (FOAM_SIGFPE).
fileModificationChecking : Monitoring run-time modified files using timeStampMaster (fileModificationSkew 5, maxFileModificationPolls 20)
allowSystemOperations : Allowing user-supplied system call operations

// * * * * * * * * * * * * * * * * * * * * * * * * * * * * * * * * * * * * * //
Create time

Create mesh for time = 1

Time = 1

Creating fixedDisplacement boundary condition
Creating solidTraction boundary condition
    pressure is time-varying
    extrapolating patch values
Creating solidTraction boundary condition
    extrapolating patch values
Creating fixedDisplacement boundary condition
Creating solidTraction boundary condition
    pressure is time-varying
Creating solidTraction boundary condition
Creating fixedDisplacement boundary condition
Creating solidTraction boundary condition
    pressure is time-varying
Creating solidTraction boundary condition
Creating fixedDisplacement boundary condition
Creating solidTraction boundary condition
    pressure is time-varying
Creating solidTraction boundary condition
Creating fixedDisplacement boundary condition
Creating solidTraction boundary condition
    pressure is time-varying
Creating solidTraction boundary condition
Creating fixedDisplacement boundary condition
Creating solidTraction boundary condition
    pressure is time-varying
Creating solidTraction boundary condition
Creating fixedDisplacement boundary condition
Creating solidTraction boundary condition
    pressure is time-varying
Creating solidTraction boundary condition
Creating fixedDisplacement boundary condition
Creating solidTraction boundary condition
    pressure is time-varying
Creating solidTraction boundary condition

Apex:
    inside = -0.0132414
    outside = -0.014904

Writing the deformed midline coordinates to midLineDeformed.txt

End

