/*---------------------------------------------------------------------------*\
| =========                 |                                                 |
| \\      /  F ield         | OpenFOAM: The Open Source CFD Toolbox           |
|  \\    /   O peration     | Version:  2412                                  |
|   \\  /    A nd           | Website:  www.openfoam.com                      |
|    \\/     M anipulation  |                                                 |
\*---------------------------------------------------------------------------*/
Build  : _8dbc61e11c-20241220 OPENFOAM=2412 version=v2412
Arch   : "LSB;label=32;scalar=64"
Exec   : cardiacFoam -parallel
Date   : Mar 19 2026
Time   : 20:06:42
Host   : macbook
PID    : 84226
I/O    : uncollated
Case   : /Users/simaocastro/cardiacFoamv2/tutorials/manufacturedFDA
nProcs : 6
Hosts  :
(
    (macbook 6)
)
Pstream initialized with:
    floatTransfer      : false
    maxCommsSize       : 0
    nProcsSimpleSum    : 0
    nonBlockingExchange: 0 (tuning: 0)
    exchange algorithm : 0
    commsType          : nonBlocking
    polling iterations : 0
trapFpe: Floating point exception trapping enabled (FOAM_SIGFPE).
fileModificationChecking : Monitoring run-time modified files using timeStampMaster (fileModificationSkew 5, maxFileModificationPolls 20)
allowSystemOperations : Allowing user-supplied system call operations

// * * * * * * * * * * * * * * * * * * * * * * * * * * * * * * * * * * * * * //
Create time

Selecting physicsModel electroModel

Selecting electroModel monoDomainElectro

conductivity not found on disk, using value from "/Users/simaocastro/cardiacFoamv2/tutorials/manufacturedFDA/processor0/../constant/electroProperties/monoDomainElectroCoeffs"

conductivity tensor (cell 0): (0.111453 0 0 0 0.121585 0 0 0 0.0303964)
--> FOAM Warning : 
    From Foam::electroModels::monoDomainElectro::monoDomainElectro(const word &, Time &, const word &)
    in file monoDomainElectro/monoDomainElectro.C at line 322
    Stimulus box index 0 does not contain any mesh cells.
Surface-to-volume ratio chi = chi [0 -1 0 0 0 0 0] 3
Membrane capacitance Cm = Cm [-1 -4 4 0 0 2 0] 2

Using pre/post processor tmanufacturedFDA for ionic model tmanufacturedFDA.
Running preProcess with fields 3(u1 u2 u3).
Selecting ecgModel pseudoECGElectro
ECG conductivity source: monodomain conductivity field

ECG electrodes (5):
  E1  @  (-0.5 0 0)
  E2  @  (1.5 0 0)
  E3  @  (1.2 0 0)
  E4  @  (1.35 0 0)
  E5  @  (1.65 0 0)

Enabled manufactured pseudo-ECG references: qRef=96, qChecks=(6 12 24 48), dimension=1.
Time = 0.000560538

Solving the mono-domain equation for Vm using an implicit approach
DEBUG cell=0 t=0→0.000560538 step=0.000560538 V=0.999229 u1=2.01173 u2=0.993808 u3=0 Iion=0
Selecting ODE solver RKF45
DEBUG cell=0 t=0→0.000560538 step=0.00504484 V=0.999229 u1=2.01258 u2=0.993251 u3=0 Iion=-1.36533

PIMPLE: no residual control data found. Calculations will employ 2 corrector loops

PIMPLE: iteration 1
DICPCG:  Solving for Vm, Initial residual = 0.000140054, Final residual = 2.59388e-20, No Iterations 3
PIMPLE: iteration 2
DICPCG:  Solving for Vm, Initial residual = 6.98088e-17, Final residual = 6.98088e-17, No Iterations 0
ExecutionTime = 0 s  ClockTime = 0 s

Time = 0.00112108

DEBUG cell=0 t=0.000560538→0.00112108 step=0.000560538 V=0.999509 u1=2.01258 u2=0.993251 u3=0 Iion=-1.36533
DEBUG cell=0 t=0.000560538→0.00112108 step=0.00504484 V=0.999509 u1=2.01342 u2=0.992695 u3=0 Iion=-1.36515
PIMPLE: iteration 1
DICPCG:  Solving for Vm, Initial residual = 0.000139988, Final residual = 1.10226e-21, No Iterations 3
PIMPLE: iteration 2
DICPCG:  Solving for Vm, Initial residual = 5.20894e-17, Final residual = 5.20894e-17, No Iterations 0
ExecutionTime = 0 s  ClockTime = 0 s

Time = 0.00168161

DEBUG cell=0 t=0.00112108→0.00168161 step=0.000560538 V=0.999789 u1=2.01342 u2=0.992695 u3=0 Iion=-1.36515
DEBUG cell=0 t=0.00112108→0.00168161 step=0.00504484 V=0.999789 u1=2.01427 u2=0.992139 u3=0 Iion=-1.36498
PIMPLE: iteration 1
DICPCG:  Solving for Vm, Initial residual = 0.000139914, Final residual = 1.10193e-21, No Iterations 3
PIMPLE: iteration 2
DICPCG:  Solving for Vm, Initial residual = 3.21399e-17, Final residual = 3.21399e-17, No Iterations 0
ExecutionTime = 0 s  ClockTime = 0 s

Time = 0.00224215

DEBUG cell=0 t=0.00168161→0.00224215 step=0.000560538 V=1.00007 u1=2.01427 u2=0.992139 u3=0 Iion=-1.36498
DEBUG cell=0 t=0.00168161→0.00224215 step=0.00504484 V=1.00007 u1=2.01512 u2=0.991584 u3=0 Iion=-1.3648
PIMPLE: iteration 1
DICPCG:  Solving for Vm, Initial residual = 0.000139837, Final residual = 1.10102e-21, No Iterations 3
PIMPLE: iteration 2
DICPCG:  Solving for Vm, Initial residual = 4.10788e-17, Final residual = 4.10788e-17, No Iterations 0
ExecutionTime = 0.01 s  ClockTime = 0 s

Time = 0.00280269

DEBUG cell=0 t=0.00224215→0.00280269 step=0.000560538 V=1.00035 u1=2.01512 u2=0.991584 u3=0 Iion=-1.3648
DEBUG cell=0 t=0.00224215→0.00280269 step=0.00504484 V=1.00035 u1=2.01597 u2=0.99103 u3=0 Iion=-1.36462
PIMPLE: iteration 1
DICPCG:  Solving for Vm, Initial residual = 0.00013976, Final residual = 1.10047e-21, No Iterations 3
PIMPLE: iteration 2
DICPCG:  Solving for Vm, Initial residual = 4.68953e-17, Final residual = 4.68953e-17, No Iterations 0
ExecutionTime = 0.01 s  ClockTime = 0 s

Time = 0.00336323

DEBUG cell=0 t=0.00280269→0.00336323 step=0.000560538 V=1.00063 u1=2.01597 u2=0.99103 u3=0 Iion=-1.36462
DEBUG cell=0 t=0.00280269→0.00336323 step=0.00504484 V=1.00063 u1=2.01681 u2=0.990476 u3=0 Iion=-1.36445
PIMPLE: iteration 1
DICPCG:  Solving for Vm, Initial residual = 0.000139682, Final residual = 1.10158e-21, No Iterations 3
PIMPLE: iteration 2
DICPCG:  Solving for Vm, Initial residual = 3.1571e-17, Final residual = 3.1571e-17, No Iterations 0
ExecutionTime = 0.01 s  ClockTime = 0 s

Time = 0.00392377

DEBUG cell=0 t=0.00336323→0.00392377 step=0.000560538 V=1.00091 u1=2.01681 u2=0.990476 u3=0 Iion=-1.36445
DEBUG cell=0 t=0.00336323→0.00392377 step=0.00504484 V=1.00091 u1=2.01766 u2=0.989923 u3=0 Iion=-1.36427
PIMPLE: iteration 1
DICPCG:  Solving for Vm, Initial residual = 0.000139604, Final residual = 1.09959e-21, No Iterations 3
PIMPLE: iteration 2
DICPCG:  Solving for Vm, Initial residual = 4.80883e-17, Final residual = 4.80883e-17, No Iterations 0
ExecutionTime = 0.01 s  ClockTime = 0 s

Time = 0.0044843

DEBUG cell=0 t=0.00392377→0.0044843 step=0.000560538 V=1.00119 u1=2.01766 u2=0.989923 u3=0 Iion=-1.36427
DEBUG cell=0 t=0.00392377→0.0044843 step=0.00504484 V=1.00119 u1=2.01851 u2=0.989371 u3=0 Iion=-1.36409
PIMPLE: iteration 1
DICPCG:  Solving for Vm, Initial residual = 0.000139526, Final residual = 1.09907e-21, No Iterations 3
PIMPLE: iteration 2
DICPCG:  Solving for Vm, Initial residual = 4.53664e-17, Final residual = 4.53664e-17, No Iterations 0
ExecutionTime = 0.01 s  ClockTime = 0 s

Time = 0.00504484

DEBUG cell=0 t=0.0044843→0.00504484 step=0.000560538 V=1.00147 u1=2.01851 u2=0.989371 u3=0 Iion=-1.36409
DEBUG cell=0 t=0.0044843→0.00504484 step=0.00504484 V=1.00147 u1=2.01936 u2=0.988819 u3=0 Iion=-1.36392
PIMPLE: iteration 1
DICPCG:  Solving for Vm, Initial residual = 0.000139448, Final residual = 1.09784e-21, No Iterations 3
PIMPLE: iteration 2
DICPCG:  Solving for Vm, Initial residual = 5.26646e-17, Final residual = 5.26646e-17, No Iterations 0
ExecutionTime = 0.01 s  ClockTime = 0 s

Time = 0.00560538

DEBUG cell=0 t=0.00504484→0.00560538 step=0.000560538 V=1.00175 u1=2.01936 u2=0.988819 u3=0 Iion=-1.36392
DEBUG cell=0 t=0.00504484→0.00560538 step=0.00504484 V=1.00175 u1=2.0202 u2=0.988268 u3=0 Iion=-1.36374
PIMPLE: iteration 1
DICPCG:  Solving for Vm, Initial residual = 0.000139371, Final residual = 1.09718e-21, No Iterations 3
PIMPLE: iteration 2
DICPCG:  Solving for Vm, Initial residual = 4.73714e-17, Final residual = 4.73714e-17, No Iterations 0
ExecutionTime = 0.01 s  ClockTime = 0 s

Time = 0.00616592

DEBUG cell=0 t=0.00560538→0.00616592 step=0.000560538 V=1.00203 u1=2.0202 u2=0.988268 u3=0 Iion=-1.36374
DEBUG cell=0 t=0.00560538→0.00616592 step=0.00504484 V=1.00203 u1=2.02105 u2=0.987717 u3=0 Iion=-1.36357
PIMPLE: iteration 1
DICPCG:  Solving for Vm, Initial residual = 0.000139293, Final residual = 1.09767e-21, No Iterations 3
PIMPLE: iteration 2
DICPCG:  Solving for Vm, Initial residual = 3.78865e-17, Final residual = 3.78865e-17, No Iterations 0
ExecutionTime = 0.01 s  ClockTime = 0 s

Time = 0.00672646

DEBUG cell=0 t=0.00616592→0.00672646 step=0.000560538 V=1.00231 u1=2.02105 u2=0.987717 u3=0 Iion=-1.36357
DEBUG cell=0 t=0.00616592→0.00672646 step=0.00504484 V=1.00231 u1=2.0219 u2=0.987167 u3=0 Iion=-1.36339
PIMPLE: iteration 1
DICPCG:  Solving for Vm, Initial residual = 0.000139215, Final residual = 1.09619e-21, No Iterations 3
PIMPLE: iteration 2
DICPCG:  Solving for Vm, Initial residual = 5.41085e-17, Final residual = 5.41085e-17, No Iterations 0
ExecutionTime = 0.01 s  ClockTime = 0 s

Time = 0.00728699

DEBUG cell=0 t=0.00672646→0.00728699 step=0.000560538 V=1.00258 u1=2.0219 u2=0.987167 u3=0 Iion=-1.36339
DEBUG cell=0 t=0.00672646→0.00728699 step=0.00504484 V=1.00258 u1=2.02274 u2=0.986618 u3=0 Iion=-1.36322
PIMPLE: iteration 1
DICPCG:  Solving for Vm, Initial residual = 0.000139138, Final residual = 1.09545e-21, No Iterations 3
PIMPLE: iteration 2
DICPCG:  Solving for Vm, Initial residual = 5.34173e-17, Final residual = 5.34173e-17, No Iterations 0
ExecutionTime = 0.01 s  ClockTime = 0 s

Time = 0.00784753

DEBUG cell=0 t=0.00728699→0.00784753 step=0.000560538 V=1.00286 u1=2.02274 u2=0.986618 u3=0 Iion=-1.36322
DEBUG cell=0 t=0.00728699→0.00784753 step=0.00504484 V=1.00286 u1=2.02359 u2=0.986069 u3=0 Iion=-1.36304
PIMPLE: iteration 1
DICPCG:  Solving for Vm, Initial residual = 0.000139061, Final residual = 1.09687e-21, No Iterations 3
PIMPLE: iteration 2
DICPCG:  Solving for Vm, Initial residual = 5.04281e-17, Final residual = 5.04281e-17, No Iterations 0
ExecutionTime = 0.01 s  ClockTime = 0 s

Time = 0.00840807

DEBUG cell=0 t=0.00784753→0.00840807 step=0.000560538 V=1.00314 u1=2.02359 u2=0.986069 u3=0 Iion=-1.36304
DEBUG cell=0 t=0.00784753→0.00840807 step=0.00504484 V=1.00314 u1=2.02444 u2=0.985521 u3=0 Iion=-1.36287
PIMPLE: iteration 1
DICPCG:  Solving for Vm, Initial residual = 0.000138983, Final residual = 1.09445e-21, No Iterations 3
PIMPLE: iteration 2
DICPCG:  Solving for Vm, Initial residual = 6.04159e-17, Final residual = 6.04159e-17, No Iterations 0
ExecutionTime = 0.01 s  ClockTime = 0 s

Time = 0.00896861

DEBUG cell=0 t=0.00840807→0.00896861 step=0.000560538 V=1.00342 u1=2.02444 u2=0.985521 u3=0 Iion=-1.36287
DEBUG cell=0 t=0.00840807→0.00896861 step=0.00504484 V=1.00342 u1=2.02528 u2=0.984973 u3=0 Iion=-1.36269
PIMPLE: iteration 1
DICPCG:  Solving for Vm, Initial residual = 0.000138906, Final residual = 1.09372e-21, No Iterations 3
PIMPLE: iteration 2
DICPCG:  Solving for Vm, Initial residual = 4.74275e-17, Final residual = 4.74275e-17, No Iterations 0
ExecutionTime = 0.01 s  ClockTime = 0 s

Time = 0.00952915

DEBUG cell=0 t=0.00896861→0.00952915 step=0.000560538 V=1.0037 u1=2.02528 u2=0.984973 u3=0 Iion=-1.36269
DEBUG cell=0 t=0.00896861→0.00952915 step=0.00504484 V=1.0037 u1=2.02613 u2=0.984426 u3=0 Iion=-1.36252
PIMPLE: iteration 1
DICPCG:  Solving for Vm, Initial residual = 0.000138829, Final residual = 1.09446e-21, No Iterations 3
PIMPLE: iteration 2
DICPCG:  Solving for Vm, Initial residual = 5.0116e-17, Final residual = 5.0116e-17, No Iterations 0
ExecutionTime = 0.01 s  ClockTime = 0 s

Time = 0.0100897

DEBUG cell=0 t=0.00952915→0.0100897 step=0.000560538 V=1.00398 u1=2.02613 u2=0.984426 u3=0 Iion=-1.36252
DEBUG cell=0 t=0.00952915→0.0100897 step=0.00504484 V=1.00398 u1=2.02698 u2=0.98388 u3=0 Iion=-1.36235
PIMPLE: iteration 1
DICPCG:  Solving for Vm, Initial residual = 0.000138752, Final residual = 1.09313e-21, No Iterations 3
PIMPLE: iteration 2
DICPCG:  Solving for Vm, Initial residual = 4.22694e-17, Final residual = 4.22694e-17, No Iterations 0
ExecutionTime = 0.01 s  ClockTime = 0 s

Time = 0.0106502

DEBUG cell=0 t=0.0100897→0.0106502 step=0.000560538 V=1.00426 u1=2.02698 u2=0.98388 u3=0 Iion=-1.36235
DEBUG cell=0 t=0.0100897→0.0106502 step=0.00504484 V=1.00426 u1=2.02782 u2=0.983334 u3=0 Iion=-1.36217
PIMPLE: iteration 1
DICPCG:  Solving for Vm, Initial residual = 0.000138675, Final residual = 1.09152e-21, No Iterations 3
PIMPLE: iteration 2
DICPCG:  Solving for Vm, Initial residual = 5.06282e-17, Final residual = 5.06282e-17, No Iterations 0
ExecutionTime = 0.01 s  ClockTime = 0 s

Time = 0.0112108

DEBUG cell=0 t=0.0106502→0.0112108 step=0.000560538 V=1.00454 u1=2.02782 u2=0.983334 u3=0 Iion=-1.36217
DEBUG cell=0 t=0.0106502→0.0112108 step=0.00504484 V=1.00454 u1=2.02867 u2=0.982789 u3=0 Iion=-1.362
PIMPLE: iteration 1
DICPCG:  Solving for Vm, Initial residual = 0.000138598, Final residual = 1.0909e-21, No Iterations 3
PIMPLE: iteration 2
DICPCG:  Solving for Vm, Initial residual = 3.71171e-17, Final residual = 3.71171e-17, No Iterations 0
ExecutionTime = 0.01 s  ClockTime = 0 s

Time = 0.0117713

DEBUG cell=0 t=0.0112108→0.0117713 step=0.000560538 V=1.00481 u1=2.02867 u2=0.982789 u3=0 Iion=-1.362
DEBUG cell=0 t=0.0112108→0.0117713 step=0.00504484 V=1.00481 u1=2.02951 u2=0.982244 u3=0 Iion=-1.36183
PIMPLE: iteration 1
DICPCG:  Solving for Vm, Initial residual = 0.000138521, Final residual = 1.09058e-21, No Iterations 3
PIMPLE: iteration 2
DICPCG:  Solving for Vm, Initial residual = 4.6822e-17, Final residual = 4.6822e-17, No Iterations 0
ExecutionTime = 0.01 s  ClockTime = 0 s

Time = 0.0123318

DEBUG cell=0 t=0.0117713→0.0123318 step=0.000560538 V=1.00509 u1=2.02951 u2=0.982244 u3=0 Iion=-1.36183
DEBUG cell=0 t=0.0117713→0.0123318 step=0.00504484 V=1.00509 u1=2.03036 u2=0.9817 u3=0 Iion=-1.36165
PIMPLE: iteration 1
DICPCG:  Solving for Vm, Initial residual = 0.000138445, Final residual = 1.0902e-21, No Iterations 3
PIMPLE: iteration 2
DICPCG:  Solving for Vm, Initial residual = 3.7771e-17, Final residual = 3.7771e-17, No Iterations 0
ExecutionTime = 0.01 s  ClockTime = 0 s

Time = 0.0128924

DEBUG cell=0 t=0.0123318→0.0128924 step=0.000560538 V=1.00537 u1=2.03036 u2=0.9817 u3=0 Iion=-1.36165
DEBUG cell=0 t=0.0123318→0.0128924 step=0.00504484 V=1.00537 u1=2.03121 u2=0.981157 u3=0 Iion=-1.36148
PIMPLE: iteration 1
DICPCG:  Solving for Vm, Initial residual = 0.000138368, Final residual = 1.08971e-21, No Iterations 3
PIMPLE: iteration 2
DICPCG:  Solving for Vm, Initial residual = 3.78954e-17, Final residual = 3.78954e-17, No Iterations 0
ExecutionTime = 0.01 s  ClockTime = 0 s

Time = 0.0134529

DEBUG cell=0 t=0.0128924→0.0134529 step=0.000560538 V=1.00565 u1=2.03121 u2=0.981157 u3=0 Iion=-1.36148
DEBUG cell=0 t=0.0128924→0.0134529 step=0.00504484 V=1.00565 u1=2.03205 u2=0.980614 u3=0 Iion=-1.36131
PIMPLE: iteration 1
DICPCG:  Solving for Vm, Initial residual = 0.000138291, Final residual = 1.08908e-21, No Iterations 3
PIMPLE: iteration 2
DICPCG:  Solving for Vm, Initial residual = 4.73224e-17, Final residual = 4.73224e-17, No Iterations 0
ExecutionTime = 0.01 s  ClockTime = 0 s

Time = 0.0140134

DEBUG cell=0 t=0.0134529→0.0140134 step=0.000560538 V=1.00593 u1=2.03205 u2=0.980614 u3=0 Iion=-1.36131
DEBUG cell=0 t=0.0134529→0.0140134 step=0.00504484 V=1.00593 u1=2.0329 u2=0.980072 u3=0 Iion=-1.36114
PIMPLE: iteration 1
DICPCG:  Solving for Vm, Initial residual = 0.000138215, Final residual = 1.08861e-21, No Iterations 3
PIMPLE: iteration 2
DICPCG:  Solving for Vm, Initial residual = 4.32658e-17, Final residual = 4.32658e-17, No Iterations 0
ExecutionTime = 0.01 s  ClockTime = 0 s

Time = 0.014574

DEBUG cell=0 t=0.0140134→0.014574 step=0.000560538 V=1.00621 u1=2.0329 u2=0.980072 u3=0 Iion=-1.36114
DEBUG cell=0 t=0.0140134→0.014574 step=0.00504484 V=1.00621 u1=2.03374 u2=0.97953 u3=0 Iion=-1.36096
PIMPLE: iteration 1
DICPCG:  Solving for Vm, Initial residual = 0.000138139, Final residual = 1.08868e-21, No Iterations 3
PIMPLE: iteration 2
DICPCG:  Solving for Vm, Initial residual = 5.26862e-17, Final residual = 5.26862e-17, No Iterations 0
ExecutionTime = 0.01 s  ClockTime = 0 s

Time = 0.0151345

DEBUG cell=0 t=0.014574→0.0151345 step=0.000560538 V=1.00648 u1=2.03374 u2=0.97953 u3=0 Iion=-1.36096
DEBUG cell=0 t=0.014574→0.0151345 step=0.00504484 V=1.00648 u1=2.03459 u2=0.978989 u3=0 Iion=-1.36079
PIMPLE: iteration 1
DICPCG:  Solving for Vm, Initial residual = 0.000138062, Final residual = 1.08714e-21, No Iterations 3
PIMPLE: iteration 2
DICPCG:  Solving for Vm, Initial residual = 5.49617e-17, Final residual = 5.49617e-17, No Iterations 0
ExecutionTime = 0.01 s  ClockTime = 0 s

Time = 0.0156951

DEBUG cell=0 t=0.0151345→0.0156951 step=0.000560538 V=1.00676 u1=2.03459 u2=0.978989 u3=0 Iion=-1.36079
DEBUG cell=0 t=0.0151345→0.0156951 step=0.00504484 V=1.00676 u1=2.03544 u2=0.978449 u3=0 Iion=-1.36062
PIMPLE: iteration 1
DICPCG:  Solving for Vm, Initial residual = 0.000137986, Final residual = 1.08653e-21, No Iterations 3
PIMPLE: iteration 2
DICPCG:  Solving for Vm, Initial residual = 4.05365e-17, Final residual = 4.05365e-17, No Iterations 0
ExecutionTime = 0.01 s  ClockTime = 0 s

Time = 0.0162556

DEBUG cell=0 t=0.0156951→0.0162556 step=0.000560538 V=1.00704 u1=2.03544 u2=0.978449 u3=0 Iion=-1.36062
DEBUG cell=0 t=0.0156951→0.0162556 step=0.00504484 V=1.00704 u1=2.03628 u2=0.977909 u3=0 Iion=-1.36045
PIMPLE: iteration 1
DICPCG:  Solving for Vm, Initial residual = 0.00013791, Final residual = 1.08572e-21, No Iterations 3
PIMPLE: iteration 2
DICPCG:  Solving for Vm, Initial residual = 5.5066e-17, Final residual = 5.5066e-17, No Iterations 0
ExecutionTime = 0.01 s  ClockTime = 0 s

Time = 0.0168161

DEBUG cell=0 t=0.0162556→0.0168161 step=0.000560538 V=1.00732 u1=2.03628 u2=0.977909 u3=0 Iion=-1.36045
DEBUG cell=0 t=0.0162556→0.0168161 step=0.00504484 V=1.00732 u1=2.03713 u2=0.97737 u3=0 Iion=-1.36028
PIMPLE: iteration 1
DICPCG:  Solving for Vm, Initial residual = 0.000137834, Final residual = 1.08594e-21, No Iterations 3
PIMPLE: iteration 2
DICPCG:  Solving for Vm, Initial residual = 5.39741e-17, Final residual = 5.39741e-17, No Iterations 0
ExecutionTime = 0.01 s  ClockTime = 0 s

Time = 0.0173767

DEBUG cell=0 t=0.0168161→0.0173767 step=0.000560538 V=1.0076 u1=2.03713 u2=0.97737 u3=0 Iion=-1.36028
DEBUG cell=0 t=0.0168161→0.0173767 step=0.00504484 V=1.0076 u1=2.03797 u2=0.976832 u3=0 Iion=-1.3601
PIMPLE: iteration 1
DICPCG:  Solving for Vm, Initial residual = 0.000137758, Final residual = 1.08465e-21, No Iterations 3
PIMPLE: iteration 2
DICPCG:  Solving for Vm, Initial residual = 6.64734e-17, Final residual = 6.64734e-17, No Iterations 0
ExecutionTime = 0.01 s  ClockTime = 0 s

Time = 0.0179372

DEBUG cell=0 t=0.0173767→0.0179372 step=0.000560538 V=1.00787 u1=2.03797 u2=0.976832 u3=0 Iion=-1.3601
DEBUG cell=0 t=0.0173767→0.0179372 step=0.00504484 V=1.00787 u1=2.03882 u2=0.976294 u3=0 Iion=-1.35993
PIMPLE: iteration 1
DICPCG:  Solving for Vm, Initial residual = 0.000137682, Final residual = 1.08401e-21, No Iterations 3
PIMPLE: iteration 2
DICPCG:  Solving for Vm, Initial residual = 5.13884e-17, Final residual = 5.13884e-17, No Iterations 0
ExecutionTime = 0.01 s  ClockTime = 0 s

Time = 0.0184978

DEBUG cell=0 t=0.0179372→0.0184978 step=0.000560538 V=1.00815 u1=2.03882 u2=0.976294 u3=0 Iion=-1.35993
DEBUG cell=0 t=0.0179372→0.0184978 step=0.00504484 V=1.00815 u1=2.03966 u2=0.975756 u3=0 Iion=-1.35976
PIMPLE: iteration 1
DICPCG:  Solving for Vm, Initial residual = 0.000137607, Final residual = 1.08381e-21, No Iterations 3
PIMPLE: iteration 2
DICPCG:  Solving for Vm, Initial residual = 3.29494e-17, Final residual = 3.29494e-17, No Iterations 0
ExecutionTime = 0.01 s  ClockTime = 0 s

Time = 0.0190583

DEBUG cell=0 t=0.0184978→0.0190583 step=0.000560538 V=1.00843 u1=2.03966 u2=0.975756 u3=0 Iion=-1.35976
DEBUG cell=0 t=0.0184978→0.0190583 step=0.00504484 V=1.00843 u1=2.04051 u2=0.975219 u3=0 Iion=-1.35959
PIMPLE: iteration 1
DICPCG:  Solving for Vm, Initial residual = 0.000137531, Final residual = 1.08276e-21, No Iterations 3
PIMPLE: iteration 2
DICPCG:  Solving for Vm, Initial residual = 4.3562e-17, Final residual = 4.3562e-17, No Iterations 0
ExecutionTime = 0.01 s  ClockTime = 0 s

Time = 0.0196188

DEBUG cell=0 t=0.0190583→0.0196188 step=0.000560538 V=1.00871 u1=2.04051 u2=0.975219 u3=0 Iion=-1.35959
DEBUG cell=0 t=0.0190583→0.0196188 step=0.00504484 V=1.00871 u1=2.04135 u2=0.974683 u3=0 Iion=-1.35942
PIMPLE: iteration 1
DICPCG:  Solving for Vm, Initial residual = 0.000137455, Final residual = 1.08353e-21, No Iterations 3
PIMPLE: iteration 2
DICPCG:  Solving for Vm, Initial residual = 6.93574e-17, Final residual = 6.93574e-17, No Iterations 0
ExecutionTime = 0.01 s  ClockTime = 0 s

Time = 0.0201794

DEBUG cell=0 t=0.0196188→0.0201794 step=0.000560538 V=1.00898 u1=2.04135 u2=0.974683 u3=0 Iion=-1.35942
DEBUG cell=0 t=0.0196188→0.0201794 step=0.00504484 V=1.00898 u1=2.0422 u2=0.974148 u3=0 Iion=-1.35925
PIMPLE: iteration 1
DICPCG:  Solving for Vm, Initial residual = 0.00013738, Final residual = 1.08186e-21, No Iterations 3
PIMPLE: iteration 2
DICPCG:  Solving for Vm, Initial residual = 4.64943e-17, Final residual = 4.64943e-17, No Iterations 0
ExecutionTime = 0.01 s  ClockTime = 0 s

Time = 0.0207399

DEBUG cell=0 t=0.0201794→0.0207399 step=0.000560538 V=1.00926 u1=2.0422 u2=0.974148 u3=0 Iion=-1.35925
DEBUG cell=0 t=0.0201794→0.0207399 step=0.00504484 V=1.00926 u1=2.04304 u2=0.973613 u3=0 Iion=-1.35908
PIMPLE: iteration 1
DICPCG:  Solving for Vm, Initial residual = 0.000137304, Final residual = 1.08091e-21, No Iterations 3
PIMPLE: iteration 2
DICPCG:  Solving for Vm, Initial residual = 5.36016e-17, Final residual = 5.36016e-17, No Iterations 0
ExecutionTime = 0.01 s  ClockTime = 0 s

Time = 0.0213004

DEBUG cell=0 t=0.0207399→0.0213004 step=0.000560538 V=1.00954 u1=2.04304 u2=0.973613 u3=0 Iion=-1.35908
DEBUG cell=0 t=0.0207399→0.0213004 step=0.00504484 V=1.00954 u1=2.04389 u2=0.973078 u3=0 Iion=-1.35891
PIMPLE: iteration 1
DICPCG:  Solving for Vm, Initial residual = 0.000137229, Final residual = 1.08287e-21, No Iterations 3
PIMPLE: iteration 2
DICPCG:  Solving for Vm, Initial residual = 5.10351e-17, Final residual = 5.10351e-17, No Iterations 0
ExecutionTime = 0.01 s  ClockTime = 0 s

Time = 0.021861

DEBUG cell=0 t=0.0213004→0.021861 step=0.000560538 V=1.00982 u1=2.04389 u2=0.973078 u3=0 Iion=-1.35891
DEBUG cell=0 t=0.0213004→0.021861 step=0.00504484 V=1.00982 u1=2.04473 u2=0.972544 u3=0 Iion=-1.35874
PIMPLE: iteration 1
DICPCG:  Solving for Vm, Initial residual = 0.000137154, Final residual = 1.08106e-21, No Iterations 3
PIMPLE: iteration 2
DICPCG:  Solving for Vm, Initial residual = 4.61875e-17, Final residual = 4.61875e-17, No Iterations 0
ExecutionTime = 0.01 s  ClockTime = 0 s

Time = 0.0224215

DEBUG cell=0 t=0.021861→0.0224215 step=0.000560538 V=1.01009 u1=2.04473 u2=0.972544 u3=0 Iion=-1.35874
DEBUG cell=0 t=0.021861→0.0224215 step=0.00504484 V=1.01009 u1=2.04558 u2=0.972011 u3=0 Iion=-1.35857
PIMPLE: iteration 1
DICPCG:  Solving for Vm, Initial residual = 0.000137079, Final residual = 1.0792e-21, No Iterations 3
PIMPLE: iteration 2
DICPCG:  Solving for Vm, Initial residual = 5.27521e-17, Final residual = 5.27521e-17, No Iterations 0
ExecutionTime = 0.01 s  ClockTime = 0 s

Time = 0.0229821

DEBUG cell=0 t=0.0224215→0.0229821 step=0.000560538 V=1.01037 u1=2.04558 u2=0.972011 u3=0 Iion=-1.35857
DEBUG cell=0 t=0.0224215→0.0229821 step=0.00504484 V=1.01037 u1=2.04642 u2=0.971478 u3=0 Iion=-1.3584
PIMPLE: iteration 1
DICPCG:  Solving for Vm, Initial residual = 0.000137003, Final residual = 1.07886e-21, No Iterations 3
PIMPLE: iteration 2
DICPCG:  Solving for Vm, Initial residual = 4.76383e-17, Final residual = 4.76383e-17, No Iterations 0
ExecutionTime = 0.01 s  ClockTime = 0 s

Time = 0.0235426

DEBUG cell=0 t=0.0229821→0.0235426 step=0.000560538 V=1.01065 u1=2.04642 u2=0.971478 u3=0 Iion=-1.3584
DEBUG cell=0 t=0.0229821→0.0235426 step=0.00504484 V=1.01065 u1=2.04727 u2=0.970946 u3=0 Iion=-1.35823
PIMPLE: iteration 1
DICPCG:  Solving for Vm, Initial residual = 0.000136928, Final residual = 1.07867e-21, No Iterations 3
PIMPLE: iteration 2
DICPCG:  Solving for Vm, Initial residual = 4.9101e-17, Final residual = 4.9101e-17, No Iterations 0
ExecutionTime = 0.01 s  ClockTime = 0 s

Time = 0.0241031

DEBUG cell=0 t=0.0235426→0.0241031 step=0.000560538 V=1.01092 u1=2.04727 u2=0.970946 u3=0 Iion=-1.35823
DEBUG cell=0 t=0.0235426→0.0241031 step=0.00504484 V=1.01092 u1=2.04811 u2=0.970415 u3=0 Iion=-1.35807
PIMPLE: iteration 1
DICPCG:  Solving for Vm, Initial residual = 0.000136853, Final residual = 1.07754e-21, No Iterations 3
PIMPLE: iteration 2
DICPCG:  Solving for Vm, Initial residual = 4.29181e-17, Final residual = 4.29181e-17, No Iterations 0
ExecutionTime = 0.01 s  ClockTime = 0 s

Time = 0.0246637

DEBUG cell=0 t=0.0241031→0.0246637 step=0.000560538 V=1.0112 u1=2.04811 u2=0.970415 u3=0 Iion=-1.35807
DEBUG cell=0 t=0.0241031→0.0246637 step=0.00504484 V=1.0112 u1=2.04896 u2=0.969884 u3=0 Iion=-1.3579
PIMPLE: iteration 1
DICPCG:  Solving for Vm, Initial residual = 0.000136779, Final residual = 1.07752e-21, No Iterations 3
PIMPLE: iteration 2
DICPCG:  Solving for Vm, Initial residual = 2.4403e-17, Final residual = 2.4403e-17, No Iterations 0
ExecutionTime = 0.01 s  ClockTime = 0 s

Time = 0.0252242

DEBUG cell=0 t=0.0246637→0.0252242 step=0.000560538 V=1.01148 u1=2.04896 u2=0.969884 u3=0 Iion=-1.3579
DEBUG cell=0 t=0.0246637→0.0252242 step=0.00504484 V=1.01148 u1=2.0498 u2=0.969353 u3=0 Iion=-1.35773
PIMPLE: iteration 1
DICPCG:  Solving for Vm, Initial residual = 0.000136704, Final residual = 1.07745e-21, No Iterations 3
PIMPLE: iteration 2
DICPCG:  Solving for Vm, Initial residual = 4.18222e-17, Final residual = 4.18222e-17, No Iterations 0
ExecutionTime = 0.01 s  ClockTime = 0 s

Time = 0.0257847

DEBUG cell=0 t=0.0252242→0.0257847 step=0.000560538 V=1.01175 u1=2.0498 u2=0.969353 u3=0 Iion=-1.35773
DEBUG cell=0 t=0.0252242→0.0257847 step=0.00504484 V=1.01175 u1=2.05064 u2=0.968824 u3=0 Iion=-1.35756
PIMPLE: iteration 1
DICPCG:  Solving for Vm, Initial residual = 0.000136629, Final residual = 1.07583e-21, No Iterations 3
PIMPLE: iteration 2
DICPCG:  Solving for Vm, Initial residual = 6.60665e-17, Final residual = 6.60665e-17, No Iterations 0
ExecutionTime = 0.01 s  ClockTime = 0 s

Time = 0.0263453

DEBUG cell=0 t=0.0257847→0.0263453 step=0.000560538 V=1.01203 u1=2.05064 u2=0.968824 u3=0 Iion=-1.35756
DEBUG cell=0 t=0.0257847→0.0263453 step=0.00504484 V=1.01203 u1=2.05149 u2=0.968295 u3=0 Iion=-1.35739
PIMPLE: iteration 1
DICPCG:  Solving for Vm, Initial residual = 0.000136555, Final residual = 1.07507e-21, No Iterations 3
PIMPLE: iteration 2
DICPCG:  Solving for Vm, Initial residual = 5.78761e-17, Final residual = 5.78761e-17, No Iterations 0
ExecutionTime = 0.01 s  ClockTime = 0 s

Time = 0.0269058

DEBUG cell=0 t=0.0263453→0.0269058 step=0.000560538 V=1.01231 u1=2.05149 u2=0.968295 u3=0 Iion=-1.35739
DEBUG cell=0 t=0.0263453→0.0269058 step=0.00504484 V=1.01231 u1=2.05233 u2=0.967766 u3=0 Iion=-1.35722
PIMPLE: iteration 1
DICPCG:  Solving for Vm, Initial residual = 0.00013648, Final residual = 1.07524e-21, No Iterations 3
PIMPLE: iteration 2
DICPCG:  Solving for Vm, Initial residual = 5.54494e-17, Final residual = 5.54494e-17, No Iterations 0
ExecutionTime = 0.01 s  ClockTime = 0 s

Time = 0.0274664

DEBUG cell=0 t=0.0269058→0.0274664 step=0.000560538 V=1.01258 u1=2.05233 u2=0.967766 u3=0 Iion=-1.35722
DEBUG cell=0 t=0.0269058→0.0274664 step=0.00504484 V=1.01258 u1=2.05318 u2=0.967238 u3=0 Iion=-1.35706
PIMPLE: iteration 1
DICPCG:  Solving for Vm, Initial residual = 0.000136406, Final residual = 1.07413e-21, No Iterations 3
PIMPLE: iteration 2
DICPCG:  Solving for Vm, Initial residual = 4.83377e-17, Final residual = 4.83377e-17, No Iterations 0
ExecutionTime = 0.01 s  ClockTime = 0 s

Time = 0.0280269

DEBUG cell=0 t=0.0274664→0.0280269 step=0.000560538 V=1.01286 u1=2.05318 u2=0.967238 u3=0 Iion=-1.35706
DEBUG cell=0 t=0.0274664→0.0280269 step=0.00504484 V=1.01286 u1=2.05402 u2=0.96671 u3=0 Iion=-1.35689
PIMPLE: iteration 1
DICPCG:  Solving for Vm, Initial residual = 0.000136331, Final residual = 1.0734e-21, No Iterations 3
PIMPLE: iteration 2
DICPCG:  Solving for Vm, Initial residual = 3.86864e-17, Final residual = 3.86864e-17, No Iterations 0
ExecutionTime = 0.01 s  ClockTime = 0 s

Time = 0.0285874

DEBUG cell=0 t=0.0280269→0.0285874 step=0.000560538 V=1.01314 u1=2.05402 u2=0.96671 u3=0 Iion=-1.35689
DEBUG cell=0 t=0.0280269→0.0285874 step=0.00504484 V=1.01314 u1=2.05486 u2=0.966184 u3=0 Iion=-1.35672
PIMPLE: iteration 1
DICPCG:  Solving for Vm, Initial residual = 0.000136257, Final residual = 1.07429e-21, No Iterations 3
PIMPLE: iteration 2
DICPCG:  Solving for Vm, Initial residual = 5.83483e-17, Final residual = 5.83483e-17, No Iterations 0
ExecutionTime = 0.01 s  ClockTime = 0 s

Time = 0.029148

DEBUG cell=0 t=0.0285874→0.029148 step=0.000560538 V=1.01341 u1=2.05486 u2=0.966184 u3=0 Iion=-1.35672
DEBUG cell=0 t=0.0285874→0.029148 step=0.00504484 V=1.01341 u1=2.05571 u2=0.965657 u3=0 Iion=-1.35655
PIMPLE: iteration 1
DICPCG:  Solving for Vm, Initial residual = 0.000136183, Final residual = 1.07248e-21, No Iterations 3
PIMPLE: iteration 2
DICPCG:  Solving for Vm, Initial residual = 4.24114e-17, Final residual = 4.24114e-17, No Iterations 0
ExecutionTime = 0.01 s  ClockTime = 0 s

Time = 0.0297085

DEBUG cell=0 t=0.029148→0.0297085 step=0.000560538 V=1.01369 u1=2.05571 u2=0.965657 u3=0 Iion=-1.35655
DEBUG cell=0 t=0.029148→0.0297085 step=0.00504484 V=1.01369 u1=2.05655 u2=0.965131 u3=0 Iion=-1.35639
PIMPLE: iteration 1
DICPCG:  Solving for Vm, Initial residual = 0.000136109, Final residual = 1.07156e-21, No Iterations 3
PIMPLE: iteration 2
DICPCG:  Solving for Vm, Initial residual = 4.19986e-17, Final residual = 4.19986e-17, No Iterations 0
ExecutionTime = 0.01 s  ClockTime = 0 s

Time = 0.0302691

DEBUG cell=0 t=0.0297085→0.0302691 step=0.000560538 V=1.01396 u1=2.05655 u2=0.965131 u3=0 Iion=-1.35639
DEBUG cell=0 t=0.0297085→0.0302691 step=0.00504484 V=1.01396 u1=2.05739 u2=0.964606 u3=0 Iion=-1.35622
PIMPLE: iteration 1
DICPCG:  Solving for Vm, Initial residual = 0.000136035, Final residual = 1.07185e-21, No Iterations 3
PIMPLE: iteration 2
DICPCG:  Solving for Vm, Initial residual = 5.62949e-17, Final residual = 5.62949e-17, No Iterations 0
ExecutionTime = 0.01 s  ClockTime = 0 s

Time = 0.0308296

DEBUG cell=0 t=0.0302691→0.0308296 step=0.000560538 V=1.01424 u1=2.05739 u2=0.964606 u3=0 Iion=-1.35622
DEBUG cell=0 t=0.0302691→0.0308296 step=0.00504484 V=1.01424 u1=2.05824 u2=0.964082 u3=0 Iion=-1.35605
PIMPLE: iteration 1
DICPCG:  Solving for Vm, Initial residual = 0.000135961, Final residual = 1.07059e-21, No Iterations 3
PIMPLE: iteration 2
DICPCG:  Solving for Vm, Initial residual = 4.58525e-17, Final residual = 4.58525e-17, No Iterations 0
ExecutionTime = 0.01 s  ClockTime = 0 s

Time = 0.0313901

DEBUG cell=0 t=0.0308296→0.0313901 step=0.000560538 V=1.01452 u1=2.05824 u2=0.964082 u3=0 Iion=-1.35605
DEBUG cell=0 t=0.0308296→0.0313901 step=0.00504484 V=1.01452 u1=2.05908 u2=0.963558 u3=0 Iion=-1.35589
PIMPLE: iteration 1
DICPCG:  Solving for Vm, Initial residual = 0.000135887, Final residual = 1.07042e-21, No Iterations 3
PIMPLE: iteration 2
DICPCG:  Solving for Vm, Initial residual = 5.63979e-17, Final residual = 5.63979e-17, No Iterations 0
ExecutionTime = 0.01 s  ClockTime = 0 s

Time = 0.0319507

DEBUG cell=0 t=0.0313901→0.0319507 step=0.000560538 V=1.01479 u1=2.05908 u2=0.963558 u3=0 Iion=-1.35589
DEBUG cell=0 t=0.0313901→0.0319507 step=0.00504484 V=1.01479 u1=2.05993 u2=0.963034 u3=0 Iion=-1.35572
PIMPLE: iteration 1
DICPCG:  Solving for Vm, Initial residual = 0.000135813, Final residual = 1.07037e-21, No Iterations 3
PIMPLE: iteration 2
DICPCG:  Solving for Vm, Initial residual = 5.0103e-17, Final residual = 5.0103e-17, No Iterations 0
ExecutionTime = 0.01 s  ClockTime = 0 s

Time = 0.0325112

DEBUG cell=0 t=0.0319507→0.0325112 step=0.000560538 V=1.01507 u1=2.05993 u2=0.963034 u3=0 Iion=-1.35572
DEBUG cell=0 t=0.0319507→0.0325112 step=0.00504484 V=1.01507 u1=2.06077 u2=0.962511 u3=0 Iion=-1.35556
PIMPLE: iteration 1
DICPCG:  Solving for Vm, Initial residual = 0.000135739, Final residual = 1.06871e-21, No Iterations 3
PIMPLE: iteration 2
DICPCG:  Solving for Vm, Initial residual = 6.02409e-17, Final residual = 6.02409e-17, No Iterations 0
ExecutionTime = 0.01 s  ClockTime = 0 s

Time = 0.0330717

DEBUG cell=0 t=0.0325112→0.0330717 step=0.000560538 V=1.01534 u1=2.06077 u2=0.962511 u3=0 Iion=-1.35556
DEBUG cell=0 t=0.0325112→0.0330717 step=0.00504484 V=1.01534 u1=2.06161 u2=0.961989 u3=0 Iion=-1.35539
PIMPLE: iteration 1
DICPCG:  Solving for Vm, Initial residual = 0.000135666, Final residual = 1.06925e-21, No Iterations 3
PIMPLE: iteration 2
DICPCG:  Solving for Vm, Initial residual = 4.74051e-17, Final residual = 4.74051e-17, No Iterations 0
ExecutionTime = 0.01 s  ClockTime = 0 s

Time = 0.0336323

DEBUG cell=0 t=0.0330717→0.0336323 step=0.000560538 V=1.01562 u1=2.06161 u2=0.961989 u3=0 Iion=-1.35539
DEBUG cell=0 t=0.0330717→0.0336323 step=0.00504484 V=1.01562 u1=2.06246 u2=0.961467 u3=0 Iion=-1.35522
PIMPLE: iteration 1
DICPCG:  Solving for Vm, Initial residual = 0.000135592, Final residual = 1.06791e-21, No Iterations 3
PIMPLE: iteration 2
DICPCG:  Solving for Vm, Initial residual = 4.64578e-17, Final residual = 4.64578e-17, No Iterations 0
ExecutionTime = 0.01 s  ClockTime = 0 s

Time = 0.0341928

DEBUG cell=0 t=0.0336323→0.0341928 step=0.000560538 V=1.01589 u1=2.06246 u2=0.961467 u3=0 Iion=-1.35522
DEBUG cell=0 t=0.0336323→0.0341928 step=0.00504484 V=1.01589 u1=2.0633 u2=0.960946 u3=0 Iion=-1.35506
PIMPLE: iteration 1
DICPCG:  Solving for Vm, Initial residual = 0.000135519, Final residual = 1.06671e-21, No Iterations 3
PIMPLE: iteration 2
DICPCG:  Solving for Vm, Initial residual = 5.4453e-17, Final residual = 5.4453e-17, No Iterations 0
ExecutionTime = 0.01 s  ClockTime = 0 s

Time = 0.0347534

DEBUG cell=0 t=0.0341928→0.0347534 step=0.000560538 V=1.01617 u1=2.0633 u2=0.960946 u3=0 Iion=-1.35506
DEBUG cell=0 t=0.0341928→0.0347534 step=0.00504484 V=1.01617 u1=2.06414 u2=0.960425 u3=0 Iion=-1.35489
PIMPLE: iteration 1
DICPCG:  Solving for Vm, Initial residual = 0.000135445, Final residual = 1.06657e-21, No Iterations 3
PIMPLE: iteration 2
DICPCG:  Solving for Vm, Initial residual = 5.29706e-17, Final residual = 5.29706e-17, No Iterations 0
ExecutionTime = 0.01 s  ClockTime = 0 s

Time = 0.0353139

DEBUG cell=0 t=0.0347534→0.0353139 step=0.000560538 V=1.01645 u1=2.06414 u2=0.960425 u3=0 Iion=-1.35489
DEBUG cell=0 t=0.0347534→0.0353139 step=0.00504484 V=1.01645 u1=2.06498 u2=0.959905 u3=0 Iion=-1.35473
PIMPLE: iteration 1
DICPCG:  Solving for Vm, Initial residual = 0.000135372, Final residual = 1.06629e-21, No Iterations 3
PIMPLE: iteration 2
DICPCG:  Solving for Vm, Initial residual = 5.36232e-17, Final residual = 5.36232e-17, No Iterations 0
ExecutionTime = 0.01 s  ClockTime = 0 s

Time = 0.0358744

DEBUG cell=0 t=0.0353139→0.0358744 step=0.000560538 V=1.01672 u1=2.06498 u2=0.959905 u3=0 Iion=-1.35473
DEBUG cell=0 t=0.0353139→0.0358744 step=0.00504484 V=1.01672 u1=2.06583 u2=0.959386 u3=0 Iion=-1.35456
PIMPLE: iteration 1
DICPCG:  Solving for Vm, Initial residual = 0.000135299, Final residual = 1.06567e-21, No Iterations 3
PIMPLE: iteration 2
DICPCG:  Solving for Vm, Initial residual = 3.9073e-17, Final residual = 3.9073e-17, No Iterations 0
ExecutionTime = 0.01 s  ClockTime = 0 s

Time = 0.036435

DEBUG cell=0 t=0.0358744→0.036435 step=0.000560538 V=1.017 u1=2.06583 u2=0.959386 u3=0 Iion=-1.35456
DEBUG cell=0 t=0.0358744→0.036435 step=0.00504484 V=1.017 u1=2.06667 u2=0.958867 u3=0 Iion=-1.3544
PIMPLE: iteration 1
DICPCG:  Solving for Vm, Initial residual = 0.000135225, Final residual = 1.06465e-21, No Iterations 3
PIMPLE: iteration 2
DICPCG:  Solving for Vm, Initial residual = 6.09267e-17, Final residual = 6.09267e-17, No Iterations 0
ExecutionTime = 0.01 s  ClockTime = 0 s

Time = 0.0369955

DEBUG cell=0 t=0.036435→0.0369955 step=0.000560538 V=1.01727 u1=2.06667 u2=0.958867 u3=0 Iion=-1.3544
DEBUG cell=0 t=0.036435→0.0369955 step=0.00504484 V=1.01727 u1=2.06751 u2=0.958349 u3=0 Iion=-1.35423
PIMPLE: iteration 1
DICPCG:  Solving for Vm, Initial residual = 0.000135152, Final residual = 1.0641e-21, No Iterations 3
PIMPLE: iteration 2
DICPCG:  Solving for Vm, Initial residual = 5.42461e-17, Final residual = 5.42461e-17, No Iterations 0
ExecutionTime = 0.01 s  ClockTime = 0 s

Time = 0.037556

DEBUG cell=0 t=0.0369955→0.037556 step=0.000560538 V=1.01755 u1=2.06751 u2=0.958349 u3=0 Iion=-1.35423
DEBUG cell=0 t=0.0369955→0.037556 step=0.00504484 V=1.01755 u1=2.06836 u2=0.957831 u3=0 Iion=-1.35407
PIMPLE: iteration 1
DICPCG:  Solving for Vm, Initial residual = 0.000135079, Final residual = 1.06387e-21, No Iterations 3
PIMPLE: iteration 2
DICPCG:  Solving for Vm, Initial residual = 5.0234e-17, Final residual = 5.0234e-17, No Iterations 0
ExecutionTime = 0.01 s  ClockTime = 0 s

Time = 0.0381166

DEBUG cell=0 t=0.037556→0.0381166 step=0.000560538 V=1.01782 u1=2.06836 u2=0.957831 u3=0 Iion=-1.35407
DEBUG cell=0 t=0.037556→0.0381166 step=0.00504484 V=1.01782 u1=2.0692 u2=0.957313 u3=0 Iion=-1.35391
PIMPLE: iteration 1
DICPCG:  Solving for Vm, Initial residual = 0.000135006, Final residual = 1.06344e-21, No Iterations 3
PIMPLE: iteration 2
DICPCG:  Solving for Vm, Initial residual = 5.70142e-17, Final residual = 5.70142e-17, No Iterations 0
ExecutionTime = 0.02 s  ClockTime = 0 s

Time = 0.0386771

DEBUG cell=0 t=0.0381166→0.0386771 step=0.000560538 V=1.0181 u1=2.0692 u2=0.957313 u3=0 Iion=-1.35391
DEBUG cell=0 t=0.0381166→0.0386771 step=0.00504484 V=1.0181 u1=2.07004 u2=0.956797 u3=0 Iion=-1.35374
PIMPLE: iteration 1
DICPCG:  Solving for Vm, Initial residual = 0.000134934, Final residual = 1.06377e-21, No Iterations 3
PIMPLE: iteration 2
DICPCG:  Solving for Vm, Initial residual = 4.7943e-17, Final residual = 4.7943e-17, No Iterations 0
ExecutionTime = 0.02 s  ClockTime = 0 s

Time = 0.0392377

DEBUG cell=0 t=0.0386771→0.0392377 step=0.000560538 V=1.01837 u1=2.07004 u2=0.956797 u3=0 Iion=-1.35374
DEBUG cell=0 t=0.0386771→0.0392377 step=0.00504484 V=1.01837 u1=2.07088 u2=0.956281 u3=0 Iion=-1.35358
PIMPLE: iteration 1
DICPCG:  Solving for Vm, Initial residual = 0.000134861, Final residual = 1.0619e-21, No Iterations 3
PIMPLE: iteration 2
DICPCG:  Solving for Vm, Initial residual = 3.98085e-17, Final residual = 3.98085e-17, No Iterations 0
ExecutionTime = 0.02 s  ClockTime = 0 s

Time = 0.0397982

DEBUG cell=0 t=0.0392377→0.0397982 step=0.000560538 V=1.01865 u1=2.07088 u2=0.956281 u3=0 Iion=-1.35358
DEBUG cell=0 t=0.0392377→0.0397982 step=0.00504484 V=1.01865 u1=2.07173 u2=0.955765 u3=0 Iion=-1.35341
PIMPLE: iteration 1
DICPCG:  Solving for Vm, Initial residual = 0.000134788, Final residual = 1.06121e-21, No Iterations 3
PIMPLE: iteration 2
DICPCG:  Solving for Vm, Initial residual = 4.84495e-17, Final residual = 4.84495e-17, No Iterations 0
ExecutionTime = 0.02 s  ClockTime = 0 s

Time = 0.0403587

DEBUG cell=0 t=0.0397982→0.0403587 step=0.000560538 V=1.01892 u1=2.07173 u2=0.955765 u3=0 Iion=-1.35341
DEBUG cell=0 t=0.0397982→0.0403587 step=0.00504484 V=1.01892 u1=2.07257 u2=0.95525 u3=0 Iion=-1.35325
PIMPLE: iteration 1
DICPCG:  Solving for Vm, Initial residual = 0.000134715, Final residual = 1.06203e-21, No Iterations 3
PIMPLE: iteration 2
DICPCG:  Solving for Vm, Initial residual = 5.22954e-17, Final residual = 5.22954e-17, No Iterations 0
ExecutionTime = 0.02 s  ClockTime = 0 s

Time = 0.0409193

DEBUG cell=0 t=0.0403587→0.0409193 step=0.000560538 V=1.01919 u1=2.07257 u2=0.95525 u3=0 Iion=-1.35325
DEBUG cell=0 t=0.0403587→0.0409193 step=0.00504484 V=1.01919 u1=2.07341 u2=0.954736 u3=0 Iion=-1.35309
PIMPLE: iteration 1
DICPCG:  Solving for Vm, Initial residual = 0.000134643, Final residual = 1.06084e-21, No Iterations 3
PIMPLE: iteration 2
DICPCG:  Solving for Vm, Initial residual = 4.84234e-17, Final residual = 4.84234e-17, No Iterations 0
ExecutionTime = 0.02 s  ClockTime = 0 s

Time = 0.0414798

DEBUG cell=0 t=0.0409193→0.0414798 step=0.000560538 V=1.01947 u1=2.07341 u2=0.954736 u3=0 Iion=-1.35309
DEBUG cell=0 t=0.0409193→0.0414798 step=0.00504484 V=1.01947 u1=2.07425 u2=0.954222 u3=0 Iion=-1.35293
PIMPLE: iteration 1
DICPCG:  Solving for Vm, Initial residual = 0.00013457, Final residual = 1.0596e-21, No Iterations 3
PIMPLE: iteration 2
DICPCG:  Solving for Vm, Initial residual = 4.13616e-17, Final residual = 4.13616e-17, No Iterations 0
ExecutionTime = 0.02 s  ClockTime = 0 s

Time = 0.0420403

DEBUG cell=0 t=0.0414798→0.0420403 step=0.000560538 V=1.01974 u1=2.07425 u2=0.954222 u3=0 Iion=-1.35293
DEBUG cell=0 t=0.0414798→0.0420403 step=0.00504484 V=1.01974 u1=2.07509 u2=0.953708 u3=0 Iion=-1.35276
PIMPLE: iteration 1
DICPCG:  Solving for Vm, Initial residual = 0.000134498, Final residual = 1.06056e-21, No Iterations 3
PIMPLE: iteration 2
DICPCG:  Solving for Vm, Initial residual = 7.97759e-17, Final residual = 7.97759e-17, No Iterations 0
ExecutionTime = 0.02 s  ClockTime = 0 s

Time = 0.0426009

DEBUG cell=0 t=0.0420403→0.0426009 step=0.000560538 V=1.02002 u1=2.07509 u2=0.953708 u3=0 Iion=-1.35276
DEBUG cell=0 t=0.0420403→0.0426009 step=0.00504484 V=1.02002 u1=2.07594 u2=0.953195 u3=0 Iion=-1.3526
PIMPLE: iteration 1
DICPCG:  Solving for Vm, Initial residual = 0.000134426, Final residual = 1.05862e-21, No Iterations 3
PIMPLE: iteration 2
DICPCG:  Solving for Vm, Initial residual = 5.35684e-17, Final residual = 5.35684e-17, No Iterations 0
ExecutionTime = 0.02 s  ClockTime = 0 s

Time = 0.0431614

DEBUG cell=0 t=0.0426009→0.0431614 step=0.000560538 V=1.02029 u1=2.07594 u2=0.953195 u3=0 Iion=-1.3526
DEBUG cell=0 t=0.0426009→0.0431614 step=0.00504484 V=1.02029 u1=2.07678 u2=0.952683 u3=0 Iion=-1.35244
PIMPLE: iteration 1
DICPCG:  Solving for Vm, Initial residual = 0.000134354, Final residual = 1.05806e-21, No Iterations 3
PIMPLE: iteration 2
DICPCG:  Solving for Vm, Initial residual = 6.12615e-17, Final residual = 6.12615e-17, No Iterations 0
ExecutionTime = 0.02 s  ClockTime = 0 s

Time = 0.043722

DEBUG cell=0 t=0.0431614→0.043722 step=0.000560538 V=1.02057 u1=2.07678 u2=0.952683 u3=0 Iion=-1.35244
DEBUG cell=0 t=0.0431614→0.043722 step=0.00504484 V=1.02057 u1=2.07762 u2=0.952172 u3=0 Iion=-1.35227
PIMPLE: iteration 1
DICPCG:  Solving for Vm, Initial residual = 0.000134281, Final residual = 1.05707e-21, No Iterations 3
PIMPLE: iteration 2
DICPCG:  Solving for Vm, Initial residual = 5.19454e-17, Final residual = 5.19454e-17, No Iterations 0
ExecutionTime = 0.02 s  ClockTime = 0 s

Time = 0.0442825

DEBUG cell=0 t=0.043722→0.0442825 step=0.000560538 V=1.02084 u1=2.07762 u2=0.952172 u3=0 Iion=-1.35227
DEBUG cell=0 t=0.043722→0.0442825 step=0.00504484 V=1.02084 u1=2.07846 u2=0.95166 u3=0 Iion=-1.35211
PIMPLE: iteration 1
DICPCG:  Solving for Vm, Initial residual = 0.000134209, Final residual = 1.05702e-21, No Iterations 3
PIMPLE: iteration 2
DICPCG:  Solving for Vm, Initial residual = 3.59934e-17, Final residual = 3.59934e-17, No Iterations 0
ExecutionTime = 0.02 s  ClockTime = 0 s

Time = 0.044843

DEBUG cell=0 t=0.0442825→0.044843 step=0.000560538 V=1.02112 u1=2.07846 u2=0.95166 u3=0 Iion=-1.35211
DEBUG cell=0 t=0.0442825→0.044843 step=0.00504484 V=1.02112 u1=2.0793 u2=0.95115 u3=0 Iion=-1.35195
PIMPLE: iteration 1
DICPCG:  Solving for Vm, Initial residual = 0.000134137, Final residual = 1.05644e-21, No Iterations 3
PIMPLE: iteration 2
DICPCG:  Solving for Vm, Initial residual = 5.41748e-17, Final residual = 5.41748e-17, No Iterations 0
ExecutionTime = 0.02 s  ClockTime = 0 s

Time = 0.0454036

DEBUG cell=0 t=0.044843→0.0454036 step=0.000560538 V=1.02139 u1=2.0793 u2=0.95115 u3=0 Iion=-1.35195
DEBUG cell=0 t=0.044843→0.0454036 step=0.00504484 V=1.02139 u1=2.08015 u2=0.95064 u3=0 Iion=-1.35179
PIMPLE: iteration 1
DICPCG:  Solving for Vm, Initial residual = 0.000134065, Final residual = 1.05596e-21, No Iterations 3
PIMPLE: iteration 2
DICPCG:  Solving for Vm, Initial residual = 3.87618e-17, Final residual = 3.87618e-17, No Iterations 0
ExecutionTime = 0.02 s  ClockTime = 0 s

Time = 0.0459641

DEBUG cell=0 t=0.0454036→0.0459641 step=0.000560538 V=1.02166 u1=2.08015 u2=0.95064 u3=0 Iion=-1.35179
DEBUG cell=0 t=0.0454036→0.0459641 step=0.00504484 V=1.02166 u1=2.08099 u2=0.95013 u3=0 Iion=-1.35163
PIMPLE: iteration 1
DICPCG:  Solving for Vm, Initial residual = 0.000133994, Final residual = 1.05571e-21, No Iterations 3
PIMPLE: iteration 2
DICPCG:  Solving for Vm, Initial residual = 5.02972e-17, Final residual = 5.02972e-17, No Iterations 0
ExecutionTime = 0.02 s  ClockTime = 0 s

Time = 0.0465247

DEBUG cell=0 t=0.0459641→0.0465247 step=0.000560538 V=1.02194 u1=2.08099 u2=0.95013 u3=0 Iion=-1.35163
DEBUG cell=0 t=0.0459641→0.0465247 step=0.00504484 V=1.02194 u1=2.08183 u2=0.949621 u3=0 Iion=-1.35147
PIMPLE: iteration 1
DICPCG:  Solving for Vm, Initial residual = 0.000133922, Final residual = 1.05442e-21, No Iterations 3
PIMPLE: iteration 2
DICPCG:  Solving for Vm, Initial residual = 4.27212e-17, Final residual = 4.27212e-17, No Iterations 0
ExecutionTime = 0.02 s  ClockTime = 0 s

Time = 0.0470852

DEBUG cell=0 t=0.0465247→0.0470852 step=0.000560538 V=1.02221 u1=2.08183 u2=0.949621 u3=0 Iion=-1.35147
DEBUG cell=0 t=0.0465247→0.0470852 step=0.00504484 V=1.02221 u1=2.08267 u2=0.949113 u3=0 Iion=-1.35131
PIMPLE: iteration 1
DICPCG:  Solving for Vm, Initial residual = 0.00013385, Final residual = 1.05461e-21, No Iterations 3
PIMPLE: iteration 2
DICPCG:  Solving for Vm, Initial residual = 3.79348e-17, Final residual = 3.79348e-17, No Iterations 0
ExecutionTime = 0.02 s  ClockTime = 0 s

Time = 0.0476457

DEBUG cell=0 t=0.0470852→0.0476457 step=0.000560538 V=1.02248 u1=2.08267 u2=0.949113 u3=0 Iion=-1.35131
DEBUG cell=0 t=0.0470852→0.0476457 step=0.00504484 V=1.02248 u1=2.08351 u2=0.948605 u3=0 Iion=-1.35114
PIMPLE: iteration 1
DICPCG:  Solving for Vm, Initial residual = 0.000133779, Final residual = 1.05393e-21, No Iterations 3
PIMPLE: iteration 2
DICPCG:  Solving for Vm, Initial residual = 4.87982e-17, Final residual = 4.87982e-17, No Iterations 0
ExecutionTime = 0.02 s  ClockTime = 0 s

Time = 0.0482063

DEBUG cell=0 t=0.0476457→0.0482063 step=0.000560538 V=1.02276 u1=2.08351 u2=0.948605 u3=0 Iion=-1.35114
DEBUG cell=0 t=0.0476457→0.0482063 step=0.00504484 V=1.02276 u1=2.08435 u2=0.948098 u3=0 Iion=-1.35098
PIMPLE: iteration 1
DICPCG:  Solving for Vm, Initial residual = 0.000133707, Final residual = 1.053e-21, No Iterations 3
PIMPLE: iteration 2
DICPCG:  Solving for Vm, Initial residual = 5.2497e-17, Final residual = 5.2497e-17, No Iterations 0
ExecutionTime = 0.02 s  ClockTime = 0 s

Time = 0.0487668

DEBUG cell=0 t=0.0482063→0.0487668 step=0.000560538 V=1.02303 u1=2.08435 u2=0.948098 u3=0 Iion=-1.35098
DEBUG cell=0 t=0.0482063→0.0487668 step=0.00504484 V=1.02303 u1=2.08519 u2=0.947591 u3=0 Iion=-1.35082
PIMPLE: iteration 1
DICPCG:  Solving for Vm, Initial residual = 0.000133636, Final residual = 1.05229e-21, No Iterations 3
PIMPLE: iteration 2
DICPCG:  Solving for Vm, Initial residual = 4.63865e-17, Final residual = 4.63865e-17, No Iterations 0
ExecutionTime = 0.02 s  ClockTime = 0 s

Time = 0.0493273

DEBUG cell=0 t=0.0487668→0.0493273 step=0.000560538 V=1.02331 u1=2.08519 u2=0.947591 u3=0 Iion=-1.35082
DEBUG cell=0 t=0.0487668→0.0493273 step=0.00504484 V=1.02331 u1=2.08603 u2=0.947084 u3=0 Iion=-1.35066
PIMPLE: iteration 1
DICPCG:  Solving for Vm, Initial residual = 0.000133564, Final residual = 1.05122e-21, No Iterations 3
PIMPLE: iteration 2
DICPCG:  Solving for Vm, Initial residual = 4.30617e-17, Final residual = 4.30617e-17, No Iterations 0
ExecutionTime = 0.02 s  ClockTime = 0 s

Time = 0.0498879

DEBUG cell=0 t=0.0493273→0.0498879 step=0.000560538 V=1.02358 u1=2.08603 u2=0.947084 u3=0 Iion=-1.35066
DEBUG cell=0 t=0.0493273→0.0498879 step=0.00504484 V=1.02358 u1=2.08688 u2=0.946579 u3=0 Iion=-1.3505
PIMPLE: iteration 1
DICPCG:  Solving for Vm, Initial residual = 0.000133493, Final residual = 1.05144e-21, No Iterations 3
PIMPLE: iteration 2
DICPCG:  Solving for Vm, Initial residual = 4.84811e-17, Final residual = 4.84811e-17, No Iterations 0
ExecutionTime = 0.02 s  ClockTime = 0 s

Time = 0.0504484

DEBUG cell=0 t=0.0498879→0.0504484 step=0.000560538 V=1.02385 u1=2.08688 u2=0.946579 u3=0 Iion=-1.3505
DEBUG cell=0 t=0.0498879→0.0504484 step=0.00504484 V=1.02385 u1=2.08772 u2=0.946074 u3=0 Iion=-1.35034
PIMPLE: iteration 1
DICPCG:  Solving for Vm, Initial residual = 0.000133422, Final residual = 1.05025e-21, No Iterations 3
PIMPLE: iteration 2
DICPCG:  Solving for Vm, Initial residual = 6.71403e-17, Final residual = 6.71403e-17, No Iterations 0
ExecutionTime = 0.02 s  ClockTime = 0 s

Time = 0.051009

DEBUG cell=0 t=0.0504484→0.051009 step=0.000560538 V=1.02413 u1=2.08772 u2=0.946074 u3=0 Iion=-1.35034
DEBUG cell=0 t=0.0504484→0.051009 step=0.00504484 V=1.02413 u1=2.08856 u2=0.945569 u3=0 Iion=-1.35018
PIMPLE: iteration 1
DICPCG:  Solving for Vm, Initial residual = 0.00013335, Final residual = 1.05046e-21, No Iterations 3
PIMPLE: iteration 2
DICPCG:  Solving for Vm, Initial residual = 5.37509e-17, Final residual = 5.37509e-17, No Iterations 0
ExecutionTime = 0.02 s  ClockTime = 0 s

Time = 0.0515695

DEBUG cell=0 t=0.051009→0.0515695 step=0.000560538 V=1.0244 u1=2.08856 u2=0.945569 u3=0 Iion=-1.35018
DEBUG cell=0 t=0.051009→0.0515695 step=0.00504484 V=1.0244 u1=2.0894 u2=0.945065 u3=0 Iion=-1.35002
PIMPLE: iteration 1
DICPCG:  Solving for Vm, Initial residual = 0.000133279, Final residual = 1.04933e-21, No Iterations 3
PIMPLE: iteration 2
DICPCG:  Solving for Vm, Initial residual = 7.01487e-17, Final residual = 7.01487e-17, No Iterations 0
ExecutionTime = 0.02 s  ClockTime = 0 s

Time = 0.05213

DEBUG cell=0 t=0.0515695→0.05213 step=0.000560538 V=1.02467 u1=2.0894 u2=0.945065 u3=0 Iion=-1.35002
DEBUG cell=0 t=0.0515695→0.05213 step=0.00504484 V=1.02467 u1=2.09024 u2=0.944561 u3=0 Iion=-1.34986
PIMPLE: iteration 1
DICPCG:  Solving for Vm, Initial residual = 0.000133208, Final residual = 1.04917e-21, No Iterations 3
PIMPLE: iteration 2
DICPCG:  Solving for Vm, Initial residual = 5.25314e-17, Final residual = 5.25314e-17, No Iterations 0
ExecutionTime = 0.02 s  ClockTime = 0 s

Time = 0.0526906

DEBUG cell=0 t=0.05213→0.0526906 step=0.000560538 V=1.02495 u1=2.09024 u2=0.944561 u3=0 Iion=-1.34986
DEBUG cell=0 t=0.05213→0.0526906 step=0.00504484 V=1.02495 u1=2.09108 u2=0.944058 u3=0 Iion=-1.3497
PIMPLE: iteration 1
DICPCG:  Solving for Vm, Initial residual = 0.000133137, Final residual = 1.04863e-21, No Iterations 3
PIMPLE: iteration 2
DICPCG:  Solving for Vm, Initial residual = 4.61677e-17, Final residual = 4.61677e-17, No Iterations 0
ExecutionTime = 0.02 s  ClockTime = 0 s

Time = 0.0532511

DEBUG cell=0 t=0.0526906→0.0532511 step=0.000560538 V=1.02522 u1=2.09108 u2=0.944058 u3=0 Iion=-1.3497
DEBUG cell=0 t=0.0526906→0.0532511 step=0.00504484 V=1.02522 u1=2.09192 u2=0.943556 u3=0 Iion=-1.34954
PIMPLE: iteration 1
DICPCG:  Solving for Vm, Initial residual = 0.000133067, Final residual = 1.04785e-21, No Iterations 3
PIMPLE: iteration 2
DICPCG:  Solving for Vm, Initial residual = 4.53619e-17, Final residual = 4.53619e-17, No Iterations 0
ExecutionTime = 0.02 s  ClockTime = 0 s

Time = 0.0538116

DEBUG cell=0 t=0.0532511→0.0538116 step=0.000560538 V=1.02549 u1=2.09192 u2=0.943556 u3=0 Iion=-1.34954
DEBUG cell=0 t=0.0532511→0.0538116 step=0.00504484 V=1.02549 u1=2.09276 u2=0.943054 u3=0 Iion=-1.34939
PIMPLE: iteration 1
DICPCG:  Solving for Vm, Initial residual = 0.000132996, Final residual = 1.0477e-21, No Iterations 3
PIMPLE: iteration 2
DICPCG:  Solving for Vm, Initial residual = 4.90519e-17, Final residual = 4.90519e-17, No Iterations 0
ExecutionTime = 0.02 s  ClockTime = 0 s

Time = 0.0543722

DEBUG cell=0 t=0.0538116→0.0543722 step=0.000560538 V=1.02576 u1=2.09276 u2=0.943054 u3=0 Iion=-1.34939
DEBUG cell=0 t=0.0538116→0.0543722 step=0.00504484 V=1.02576 u1=2.0936 u2=0.942552 u3=0 Iion=-1.34923
PIMPLE: iteration 1
DICPCG:  Solving for Vm, Initial residual = 0.000132925, Final residual = 1.04646e-21, No Iterations 3
PIMPLE: iteration 2
DICPCG:  Solving for Vm, Initial residual = 3.82e-17, Final residual = 3.82e-17, No Iterations 0
ExecutionTime = 0.02 s  ClockTime = 0 s

Time = 0.0549327

DEBUG cell=0 t=0.0543722→0.0549327 step=0.000560538 V=1.02604 u1=2.0936 u2=0.942552 u3=0 Iion=-1.34923
DEBUG cell=0 t=0.0543722→0.0549327 step=0.00504484 V=1.02604 u1=2.09444 u2=0.942052 u3=0 Iion=-1.34907
PIMPLE: iteration 1
DICPCG:  Solving for Vm, Initial residual = 0.000132855, Final residual = 1.04711e-21, No Iterations 3
PIMPLE: iteration 2
DICPCG:  Solving for Vm, Initial residual = 6.31653e-17, Final residual = 6.31653e-17, No Iterations 0
ExecutionTime = 0.02 s  ClockTime = 0 s

Time = 0.0554933

DEBUG cell=0 t=0.0549327→0.0554933 step=0.000560538 V=1.02631 u1=2.09444 u2=0.942052 u3=0 Iion=-1.34907
DEBUG cell=0 t=0.0549327→0.0554933 step=0.00504484 V=1.02631 u1=2.09528 u2=0.941551 u3=0 Iion=-1.34891
PIMPLE: iteration 1
DICPCG:  Solving for Vm, Initial residual = 0.000132784, Final residual = 1.04617e-21, No Iterations 3
PIMPLE: iteration 2
DICPCG:  Solving for Vm, Initial residual = 4.34642e-17, Final residual = 4.34642e-17, No Iterations 0
ExecutionTime = 0.02 s  ClockTime = 0 s

Time = 0.0560538

DEBUG cell=0 t=0.0554933→0.0560538 step=0.000560538 V=1.02658 u1=2.09528 u2=0.941551 u3=0 Iion=-1.34891
DEBUG cell=0 t=0.0554933→0.0560538 step=0.00504484 V=1.02658 u1=2.09612 u2=0.941051 u3=0 Iion=-1.34875
PIMPLE: iteration 1
DICPCG:  Solving for Vm, Initial residual = 0.000132714, Final residual = 1.04565e-21, No Iterations 3
PIMPLE: iteration 2
DICPCG:  Solving for Vm, Initial residual = 6.19431e-17, Final residual = 6.19431e-17, No Iterations 0
ExecutionTime = 0.02 s  ClockTime = 0 s

Time = 0.0566143

DEBUG cell=0 t=0.0560538→0.0566143 step=0.000560538 V=1.02685 u1=2.09612 u2=0.941051 u3=0 Iion=-1.34875
DEBUG cell=0 t=0.0560538→0.0566143 step=0.00504484 V=1.02685 u1=2.09696 u2=0.940552 u3=0 Iion=-1.34859
PIMPLE: iteration 1
DICPCG:  Solving for Vm, Initial residual = 0.000132643, Final residual = 1.0447e-21, No Iterations 3
PIMPLE: iteration 2
DICPCG:  Solving for Vm, Initial residual = 6.6416e-17, Final residual = 6.6416e-17, No Iterations 0
ExecutionTime = 0.02 s  ClockTime = 0 s

Time = 0.0571749

DEBUG cell=0 t=0.0566143→0.0571749 step=0.000560538 V=1.02713 u1=2.09696 u2=0.940552 u3=0 Iion=-1.34859
DEBUG cell=0 t=0.0566143→0.0571749 step=0.00504484 V=1.02713 u1=2.0978 u2=0.940053 u3=0 Iion=-1.34844
PIMPLE: iteration 1
DICPCG:  Solving for Vm, Initial residual = 0.000132573, Final residual = 1.04387e-21, No Iterations 3
PIMPLE: iteration 2
DICPCG:  Solving for Vm, Initial residual = 5.25379e-17, Final residual = 5.25379e-17, No Iterations 0
ExecutionTime = 0.02 s  ClockTime = 0 s

Time = 0.0577354

DEBUG cell=0 t=0.0571749→0.0577354 step=0.000560538 V=1.0274 u1=2.0978 u2=0.940053 u3=0 Iion=-1.34844
DEBUG cell=0 t=0.0571749→0.0577354 step=0.00504484 V=1.0274 u1=2.09864 u2=0.939555 u3=0 Iion=-1.34828
PIMPLE: iteration 1
DICPCG:  Solving for Vm, Initial residual = 0.000132503, Final residual = 1.04309e-21, No Iterations 3
PIMPLE: iteration 2
DICPCG:  Solving for Vm, Initial residual = 5.97823e-17, Final residual = 5.97823e-17, No Iterations 0
ExecutionTime = 0.02 s  ClockTime = 0 s

Time = 0.058296

DEBUG cell=0 t=0.0577354→0.058296 step=0.000560538 V=1.02767 u1=2.09864 u2=0.939555 u3=0 Iion=-1.34828
DEBUG cell=0 t=0.0577354→0.058296 step=0.00504484 V=1.02767 u1=2.09948 u2=0.939057 u3=0 Iion=-1.34812
PIMPLE: iteration 1
DICPCG:  Solving for Vm, Initial residual = 0.000132432, Final residual = 1.04286e-21, No Iterations 3
PIMPLE: iteration 2
DICPCG:  Solving for Vm, Initial residual = 4.68369e-17, Final residual = 4.68369e-17, No Iterations 0
ExecutionTime = 0.02 s  ClockTime = 0 s

Time = 0.0588565

DEBUG cell=0 t=0.058296→0.0588565 step=0.000560538 V=1.02794 u1=2.09948 u2=0.939057 u3=0 Iion=-1.34812
DEBUG cell=0 t=0.058296→0.0588565 step=0.00504484 V=1.02794 u1=2.10032 u2=0.93856 u3=0 Iion=-1.34796
PIMPLE: iteration 1
DICPCG:  Solving for Vm, Initial residual = 0.000132362, Final residual = 1.04211e-21, No Iterations 3
PIMPLE: iteration 2
DICPCG:  Solving for Vm, Initial residual = 5.44747e-17, Final residual = 5.44747e-17, No Iterations 0
ExecutionTime = 0.02 s  ClockTime = 0 s

Time = 0.059417

DEBUG cell=0 t=0.0588565→0.059417 step=0.000560538 V=1.02822 u1=2.10032 u2=0.93856 u3=0 Iion=-1.34796
DEBUG cell=0 t=0.0588565→0.059417 step=0.00504484 V=1.02822 u1=2.10116 u2=0.938064 u3=0 Iion=-1.34781
PIMPLE: iteration 1
DICPCG:  Solving for Vm, Initial residual = 0.000132292, Final residual = 1.04202e-21, No Iterations 3
PIMPLE: iteration 2
DICPCG:  Solving for Vm, Initial residual = 4.74714e-17, Final residual = 4.74714e-17, No Iterations 0
ExecutionTime = 0.02 s  ClockTime = 0 s

Time = 0.0599776

DEBUG cell=0 t=0.059417→0.0599776 step=0.000560538 V=1.02849 u1=2.10116 u2=0.938064 u3=0 Iion=-1.34781
DEBUG cell=0 t=0.059417→0.0599776 step=0.00504484 V=1.02849 u1=2.102 u2=0.937567 u3=0 Iion=-1.34765
PIMPLE: iteration 1
DICPCG:  Solving for Vm, Initial residual = 0.000132222, Final residual = 1.04152e-21, No Iterations 3
PIMPLE: iteration 2
DICPCG:  Solving for Vm, Initial residual = 4.09992e-17, Final residual = 4.09992e-17, No Iterations 0
ExecutionTime = 0.02 s  ClockTime = 0 s

Time = 0.0605381

DEBUG cell=0 t=0.0599776→0.0605381 step=0.000560538 V=1.02876 u1=2.102 u2=0.937567 u3=0 Iion=-1.34765
DEBUG cell=0 t=0.0599776→0.0605381 step=0.00504484 V=1.02876 u1=2.10284 u2=0.937072 u3=0 Iion=-1.34749
PIMPLE: iteration 1
DICPCG:  Solving for Vm, Initial residual = 0.000132152, Final residual = 1.04083e-21, No Iterations 3
PIMPLE: iteration 2
DICPCG:  Solving for Vm, Initial residual = 5.5354e-17, Final residual = 5.5354e-17, No Iterations 0
ExecutionTime = 0.02 s  ClockTime = 0 s

Time = 0.0610986

DEBUG cell=0 t=0.0605381→0.0610986 step=0.000560538 V=1.02903 u1=2.10284 u2=0.937072 u3=0 Iion=-1.34749
DEBUG cell=0 t=0.0605381→0.0610986 step=0.00504484 V=1.02903 u1=2.10368 u2=0.936577 u3=0 Iion=-1.34734
PIMPLE: iteration 1
DICPCG:  Solving for Vm, Initial residual = 0.000132083, Final residual = 1.03981e-21, No Iterations 3
PIMPLE: iteration 2
DICPCG:  Solving for Vm, Initial residual = 6.08734e-17, Final residual = 6.08734e-17, No Iterations 0
ExecutionTime = 0.02 s  ClockTime = 0 s

Time = 0.0616592

DEBUG cell=0 t=0.0610986→0.0616592 step=0.000560538 V=1.0293 u1=2.10368 u2=0.936577 u3=0 Iion=-1.34734
DEBUG cell=0 t=0.0610986→0.0616592 step=0.00504484 V=1.0293 u1=2.10452 u2=0.936082 u3=0 Iion=-1.34718
PIMPLE: iteration 1
DICPCG:  Solving for Vm, Initial residual = 0.000132013, Final residual = 1.03986e-21, No Iterations 3
PIMPLE: iteration 2
DICPCG:  Solving for Vm, Initial residual = 4.97923e-17, Final residual = 4.97923e-17, No Iterations 0
ExecutionTime = 0.02 s  ClockTime = 0 s

Time = 0.0622197

DEBUG cell=0 t=0.0616592→0.0622197 step=0.000560538 V=1.02958 u1=2.10452 u2=0.936082 u3=0 Iion=-1.34718
DEBUG cell=0 t=0.0616592→0.0622197 step=0.00504484 V=1.02958 u1=2.10536 u2=0.935588 u3=0 Iion=-1.34702
PIMPLE: iteration 1
DICPCG:  Solving for Vm, Initial residual = 0.000131943, Final residual = 1.03877e-21, No Iterations 3
PIMPLE: iteration 2
DICPCG:  Solving for Vm, Initial residual = 5.32032e-17, Final residual = 5.32032e-17, No Iterations 0
ExecutionTime = 0.02 s  ClockTime = 0 s

Time = 0.0627803

DEBUG cell=0 t=0.0622197→0.0627803 step=0.000560538 V=1.02985 u1=2.10536 u2=0.935588 u3=0 Iion=-1.34702
DEBUG cell=0 t=0.0622197→0.0627803 step=0.00504484 V=1.02985 u1=2.1062 u2=0.935095 u3=0 Iion=-1.34687
PIMPLE: iteration 1
DICPCG:  Solving for Vm, Initial residual = 0.000131874, Final residual = 1.03875e-21, No Iterations 3
PIMPLE: iteration 2
DICPCG:  Solving for Vm, Initial residual = 6.34583e-17, Final residual = 6.34583e-17, No Iterations 0
ExecutionTime = 0.02 s  ClockTime = 0 s

Time = 0.0633408

DEBUG cell=0 t=0.0627803→0.0633408 step=0.000560538 V=1.03012 u1=2.1062 u2=0.935095 u3=0 Iion=-1.34687
DEBUG cell=0 t=0.0627803→0.0633408 step=0.00504484 V=1.03012 u1=2.10704 u2=0.934602 u3=0 Iion=-1.34671
PIMPLE: iteration 1
DICPCG:  Solving for Vm, Initial residual = 0.000131804, Final residual = 1.03874e-21, No Iterations 3
PIMPLE: iteration 2
DICPCG:  Solving for Vm, Initial residual = 4.89632e-17, Final residual = 4.89632e-17, No Iterations 0
ExecutionTime = 0.02 s  ClockTime = 0 s

Time = 0.0639013

DEBUG cell=0 t=0.0633408→0.0639013 step=0.000560538 V=1.03039 u1=2.10704 u2=0.934602 u3=0 Iion=-1.34671
DEBUG cell=0 t=0.0633408→0.0639013 step=0.00504484 V=1.03039 u1=2.10788 u2=0.934109 u3=0 Iion=-1.34656
PIMPLE: iteration 1
DICPCG:  Solving for Vm, Initial residual = 0.000131735, Final residual = 1.0382e-21, No Iterations 3
PIMPLE: iteration 2
DICPCG:  Solving for Vm, Initial residual = 4.00024e-17, Final residual = 4.00024e-17, No Iterations 0
ExecutionTime = 0.02 s  ClockTime = 0 s

Time = 0.0644619

DEBUG cell=0 t=0.0639013→0.0644619 step=0.000560538 V=1.03066 u1=2.10788 u2=0.934109 u3=0 Iion=-1.34656
DEBUG cell=0 t=0.0639013→0.0644619 step=0.00504484 V=1.03066 u1=2.10872 u2=0.933617 u3=0 Iion=-1.3464
PIMPLE: iteration 1
DICPCG:  Solving for Vm, Initial residual = 0.000131665, Final residual = 1.03632e-21, No Iterations 3
PIMPLE: iteration 2
DICPCG:  Solving for Vm, Initial residual = 5.47257e-17, Final residual = 5.47257e-17, No Iterations 0
ExecutionTime = 0.02 s  ClockTime = 0 s

Time = 0.0650224

DEBUG cell=0 t=0.0644619→0.0650224 step=0.000560538 V=1.03093 u1=2.10872 u2=0.933617 u3=0 Iion=-1.3464
DEBUG cell=0 t=0.0644619→0.0650224 step=0.00504484 V=1.03093 u1=2.10956 u2=0.933126 u3=0 Iion=-1.34624
PIMPLE: iteration 1
DICPCG:  Solving for Vm, Initial residual = 0.000131596, Final residual = 1.03596e-21, No Iterations 3
PIMPLE: iteration 2
DICPCG:  Solving for Vm, Initial residual = 3.49837e-17, Final residual = 3.49837e-17, No Iterations 0
ExecutionTime = 0.02 s  ClockTime = 0 s

Time = 0.0655829

DEBUG cell=0 t=0.0650224→0.0655829 step=0.000560538 V=1.03121 u1=2.10956 u2=0.933126 u3=0 Iion=-1.34624
DEBUG cell=0 t=0.0650224→0.0655829 step=0.00504484 V=1.03121 u1=2.1104 u2=0.932635 u3=0 Iion=-1.34609
PIMPLE: iteration 1
DICPCG:  Solving for Vm, Initial residual = 0.000131527, Final residual = 1.03522e-21, No Iterations 3
PIMPLE: iteration 2
DICPCG:  Solving for Vm, Initial residual = 3.5106e-17, Final residual = 3.5106e-17, No Iterations 0
ExecutionTime = 0.02 s  ClockTime = 0 s

Time = 0.0661435

DEBUG cell=0 t=0.0655829→0.0661435 step=0.000560538 V=1.03148 u1=2.1104 u2=0.932635 u3=0 Iion=-1.34609
DEBUG cell=0 t=0.0655829→0.0661435 step=0.00504484 V=1.03148 u1=2.11123 u2=0.932144 u3=0 Iion=-1.34593
PIMPLE: iteration 1
DICPCG:  Solving for Vm, Initial residual = 0.000131458, Final residual = 1.03505e-21, No Iterations 3
PIMPLE: iteration 2
DICPCG:  Solving for Vm, Initial residual = 5.49455e-17, Final residual = 5.49455e-17, No Iterations 0
ExecutionTime = 0.02 s  ClockTime = 0 s

Time = 0.066704

DEBUG cell=0 t=0.0661435→0.066704 step=0.000560538 V=1.03175 u1=2.11123 u2=0.932144 u3=0 Iion=-1.34593
DEBUG cell=0 t=0.0661435→0.066704 step=0.00504484 V=1.03175 u1=2.11207 u2=0.931655 u3=0 Iion=-1.34578
PIMPLE: iteration 1
DICPCG:  Solving for Vm, Initial residual = 0.000131389, Final residual = 1.03445e-21, No Iterations 3
PIMPLE: iteration 2
DICPCG:  Solving for Vm, Initial residual = 3.86357e-17, Final residual = 3.86357e-17, No Iterations 0
ExecutionTime = 0.02 s  ClockTime = 0 s

Time = 0.0672646

DEBUG cell=0 t=0.066704→0.0672646 step=0.000560538 V=1.03202 u1=2.11207 u2=0.931655 u3=0 Iion=-1.34578
DEBUG cell=0 t=0.066704→0.0672646 step=0.00504484 V=1.03202 u1=2.11291 u2=0.931165 u3=0 Iion=-1.34562
PIMPLE: iteration 1
DICPCG:  Solving for Vm, Initial residual = 0.00013132, Final residual = 1.03407e-21, No Iterations 3
PIMPLE: iteration 2
DICPCG:  Solving for Vm, Initial residual = 3.79687e-17, Final residual = 3.79687e-17, No Iterations 0
ExecutionTime = 0.02 s  ClockTime = 0 s

Time = 0.0678251

DEBUG cell=0 t=0.0672646→0.0678251 step=0.000560538 V=1.03229 u1=2.11291 u2=0.931165 u3=0 Iion=-1.34562
DEBUG cell=0 t=0.0672646→0.0678251 step=0.00504484 V=1.03229 u1=2.11375 u2=0.930676 u3=0 Iion=-1.34547
PIMPLE: iteration 1
DICPCG:  Solving for Vm, Initial residual = 0.000131251, Final residual = 1.03364e-21, No Iterations 3
PIMPLE: iteration 2
DICPCG:  Solving for Vm, Initial residual = 5.59529e-17, Final residual = 5.59529e-17, No Iterations 0
ExecutionTime = 0.02 s  ClockTime = 0 s

Time = 0.0683856

DEBUG cell=0 t=0.0678251→0.0683856 step=0.000560538 V=1.03256 u1=2.11375 u2=0.930676 u3=0 Iion=-1.34547
DEBUG cell=0 t=0.0678251→0.0683856 step=0.00504484 V=1.03256 u1=2.11459 u2=0.930188 u3=0 Iion=-1.34532
PIMPLE: iteration 1
DICPCG:  Solving for Vm, Initial residual = 0.000131182, Final residual = 1.03309e-21, No Iterations 3
PIMPLE: iteration 2
DICPCG:  Solving for Vm, Initial residual = 5.59383e-17, Final residual = 5.59383e-17, No Iterations 0
ExecutionTime = 0.02 s  ClockTime = 0 s

Time = 0.0689462

DEBUG cell=0 t=0.0683856→0.0689462 step=0.000560538 V=1.03283 u1=2.11459 u2=0.930188 u3=0 Iion=-1.34532
DEBUG cell=0 t=0.0683856→0.0689462 step=0.00504484 V=1.03283 u1=2.11543 u2=0.9297 u3=0 Iion=-1.34516
PIMPLE: iteration 1
DICPCG:  Solving for Vm, Initial residual = 0.000131113, Final residual = 1.03265e-21, No Iterations 3
PIMPLE: iteration 2
DICPCG:  Solving for Vm, Initial residual = 6.78697e-17, Final residual = 6.78697e-17, No Iterations 0
ExecutionTime = 0.02 s  ClockTime = 0 s

Time = 0.0695067

DEBUG cell=0 t=0.0689462→0.0695067 step=0.000560538 V=1.0331 u1=2.11543 u2=0.9297 u3=0 Iion=-1.34516
DEBUG cell=0 t=0.0689462→0.0695067 step=0.00504484 V=1.0331 u1=2.11627 u2=0.929213 u3=0 Iion=-1.34501
PIMPLE: iteration 1
DICPCG:  Solving for Vm, Initial residual = 0.000131044, Final residual = 1.03267e-21, No Iterations 3
PIMPLE: iteration 2
DICPCG:  Solving for Vm, Initial residual = 5.64339e-17, Final residual = 5.64339e-17, No Iterations 0
ExecutionTime = 0.02 s  ClockTime = 0 s

Time = 0.0700672

DEBUG cell=0 t=0.0695067→0.0700672 step=0.000560538 V=1.03337 u1=2.11627 u2=0.929213 u3=0 Iion=-1.34501
DEBUG cell=0 t=0.0695067→0.0700672 step=0.00504484 V=1.03337 u1=2.11711 u2=0.928726 u3=0 Iion=-1.34485
PIMPLE: iteration 1
DICPCG:  Solving for Vm, Initial residual = 0.000130976, Final residual = 1.03243e-21, No Iterations 3
PIMPLE: iteration 2
DICPCG:  Solving for Vm, Initial residual = 6.16674e-17, Final residual = 6.16674e-17, No Iterations 0
ExecutionTime = 0.02 s  ClockTime = 0 s

Time = 0.0706278

DEBUG cell=0 t=0.0700672→0.0706278 step=0.000560538 V=1.03365 u1=2.11711 u2=0.928726 u3=0 Iion=-1.34485
DEBUG cell=0 t=0.0700672→0.0706278 step=0.00504484 V=1.03365 u1=2.11794 u2=0.92824 u3=0 Iion=-1.3447
PIMPLE: iteration 1
DICPCG:  Solving for Vm, Initial residual = 0.000130907, Final residual = 1.03058e-21, No Iterations 3
PIMPLE: iteration 2
DICPCG:  Solving for Vm, Initial residual = 4.97145e-17, Final residual = 4.97145e-17, No Iterations 0
ExecutionTime = 0.02 s  ClockTime = 0 s

Time = 0.0711883

DEBUG cell=0 t=0.0706278→0.0711883 step=0.000560538 V=1.03392 u1=2.11794 u2=0.92824 u3=0 Iion=-1.3447
DEBUG cell=0 t=0.0706278→0.0711883 step=0.00504484 V=1.03392 u1=2.11878 u2=0.927754 u3=0 Iion=-1.34455
PIMPLE: iteration 1
DICPCG:  Solving for Vm, Initial residual = 0.000130839, Final residual = 1.03047e-21, No Iterations 3
PIMPLE: iteration 2
DICPCG:  Solving for Vm, Initial residual = 4.99638e-17, Final residual = 4.99638e-17, No Iterations 0
ExecutionTime = 0.02 s  ClockTime = 0 s

Time = 0.0717489

DEBUG cell=0 t=0.0711883→0.0717489 step=0.000560538 V=1.03419 u1=2.11878 u2=0.927754 u3=0 Iion=-1.34455
DEBUG cell=0 t=0.0711883→0.0717489 step=0.00504484 V=1.03419 u1=2.11962 u2=0.927269 u3=0 Iion=-1.34439
PIMPLE: iteration 1
DICPCG:  Solving for Vm, Initial residual = 0.00013077, Final residual = 1.03061e-21, No Iterations 3
PIMPLE: iteration 2
DICPCG:  Solving for Vm, Initial residual = 6.39789e-17, Final residual = 6.39789e-17, No Iterations 0
ExecutionTime = 0.02 s  ClockTime = 0 s

Time = 0.0723094

DEBUG cell=0 t=0.0717489→0.0723094 step=0.000560538 V=1.03446 u1=2.11962 u2=0.927269 u3=0 Iion=-1.34439
DEBUG cell=0 t=0.0717489→0.0723094 step=0.00504484 V=1.03446 u1=2.12046 u2=0.926784 u3=0 Iion=-1.34424
PIMPLE: iteration 1
DICPCG:  Solving for Vm, Initial residual = 0.000130702, Final residual = 1.03014e-21, No Iterations 3
PIMPLE: iteration 2
DICPCG:  Solving for Vm, Initial residual = 4.95445e-17, Final residual = 4.95445e-17, No Iterations 0
ExecutionTime = 0.02 s  ClockTime = 0 s

Time = 0.0728699

DEBUG cell=0 t=0.0723094→0.0728699 step=0.000560538 V=1.03473 u1=2.12046 u2=0.926784 u3=0 Iion=-1.34424
DEBUG cell=0 t=0.0723094→0.0728699 step=0.00504484 V=1.03473 u1=2.1213 u2=0.9263 u3=0 Iion=-1.34409
PIMPLE: iteration 1
DICPCG:  Solving for Vm, Initial residual = 0.000130634, Final residual = 1.03087e-21, No Iterations 3
PIMPLE: iteration 2
DICPCG:  Solving for Vm, Initial residual = 5.83109e-17, Final residual = 5.83109e-17, No Iterations 0
ExecutionTime = 0.02 s  ClockTime = 0 s

Time = 0.0734305

DEBUG cell=0 t=0.0728699→0.0734305 step=0.000560538 V=1.035 u1=2.1213 u2=0.9263 u3=0 Iion=-1.34409
DEBUG cell=0 t=0.0728699→0.0734305 step=0.00504484 V=1.035 u1=2.12213 u2=0.925816 u3=0 Iion=-1.34393
PIMPLE: iteration 1
DICPCG:  Solving for Vm, Initial residual = 0.000130565, Final residual = 1.02978e-21, No Iterations 3
PIMPLE: iteration 2
DICPCG:  Solving for Vm, Initial residual = 5.84267e-17, Final residual = 5.84267e-17, No Iterations 0
ExecutionTime = 0.02 s  ClockTime = 0 s

Time = 0.073991

DEBUG cell=0 t=0.0734305→0.073991 step=0.000560538 V=1.03527 u1=2.12213 u2=0.925816 u3=0 Iion=-1.34393
DEBUG cell=0 t=0.0734305→0.073991 step=0.00504484 V=1.03527 u1=2.12297 u2=0.925332 u3=0 Iion=-1.34378
PIMPLE: iteration 1
DICPCG:  Solving for Vm, Initial residual = 0.000130497, Final residual = 1.02722e-21, No Iterations 3
PIMPLE: iteration 2
DICPCG:  Solving for Vm, Initial residual = 4.87199e-17, Final residual = 4.87199e-17, No Iterations 0
ExecutionTime = 0.02 s  ClockTime = 0 s

Time = 0.0745516

DEBUG cell=0 t=0.073991→0.0745516 step=0.000560538 V=1.03554 u1=2.12297 u2=0.925332 u3=0 Iion=-1.34378
DEBUG cell=0 t=0.073991→0.0745516 step=0.00504484 V=1.03554 u1=2.12381 u2=0.92485 u3=0 Iion=-1.34363
PIMPLE: iteration 1
DICPCG:  Solving for Vm, Initial residual = 0.000130429, Final residual = 1.02786e-21, No Iterations 3
PIMPLE: iteration 2
DICPCG:  Solving for Vm, Initial residual = 4.24224e-17, Final residual = 4.24224e-17, No Iterations 0
ExecutionTime = 0.02 s  ClockTime = 0 s

Time = 0.0751121

DEBUG cell=0 t=0.0745516→0.0751121 step=0.000560538 V=1.03581 u1=2.12381 u2=0.92485 u3=0 Iion=-1.34363
DEBUG cell=0 t=0.0745516→0.0751121 step=0.00504484 V=1.03581 u1=2.12465 u2=0.924367 u3=0 Iion=-1.34348
PIMPLE: iteration 1
DICPCG:  Solving for Vm, Initial residual = 0.000130361, Final residual = 1.02753e-21, No Iterations 3
PIMPLE: iteration 2
DICPCG:  Solving for Vm, Initial residual = 5.11816e-17, Final residual = 5.11816e-17, No Iterations 0
ExecutionTime = 0.02 s  ClockTime = 0 s

Time = 0.0756726

DEBUG cell=0 t=0.0751121→0.0756726 step=0.000560538 V=1.03608 u1=2.12465 u2=0.924367 u3=0 Iion=-1.34348
DEBUG cell=0 t=0.0751121→0.0756726 step=0.00504484 V=1.03608 u1=2.12549 u2=0.923886 u3=0 Iion=-1.34332
PIMPLE: iteration 1
DICPCG:  Solving for Vm, Initial residual = 0.000130293, Final residual = 1.02626e-21, No Iterations 3
PIMPLE: iteration 2
DICPCG:  Solving for Vm, Initial residual = 4.80275e-17, Final residual = 4.80275e-17, No Iterations 0
ExecutionTime = 0.02 s  ClockTime = 0 s

Time = 0.0762332

DEBUG cell=0 t=0.0756726→0.0762332 step=0.000560538 V=1.03635 u1=2.12549 u2=0.923886 u3=0 Iion=-1.34332
DEBUG cell=0 t=0.0756726→0.0762332 step=0.00504484 V=1.03635 u1=2.12632 u2=0.923404 u3=0 Iion=-1.34317
PIMPLE: iteration 1
DICPCG:  Solving for Vm, Initial residual = 0.000130226, Final residual = 1.02552e-21, No Iterations 3
PIMPLE: iteration 2
DICPCG:  Solving for Vm, Initial residual = 4.01651e-17, Final residual = 4.01651e-17, No Iterations 0
ExecutionTime = 0.02 s  ClockTime = 0 s

Time = 0.0767937

DEBUG cell=0 t=0.0762332→0.0767937 step=0.000560538 V=1.03662 u1=2.12632 u2=0.923404 u3=0 Iion=-1.34317
DEBUG cell=0 t=0.0762332→0.0767937 step=0.00504484 V=1.03662 u1=2.12716 u2=0.922924 u3=0 Iion=-1.34302
PIMPLE: iteration 1
DICPCG:  Solving for Vm, Initial residual = 0.000130158, Final residual = 1.02571e-21, No Iterations 3
PIMPLE: iteration 2
DICPCG:  Solving for Vm, Initial residual = 5.80738e-17, Final residual = 5.80738e-17, No Iterations 0
ExecutionTime = 0.02 s  ClockTime = 0 s

Time = 0.0773542

DEBUG cell=0 t=0.0767937→0.0773542 step=0.000560538 V=1.03689 u1=2.12716 u2=0.922924 u3=0 Iion=-1.34302
DEBUG cell=0 t=0.0767937→0.0773542 step=0.00504484 V=1.03689 u1=2.128 u2=0.922443 u3=0 Iion=-1.34287
PIMPLE: iteration 1
DICPCG:  Solving for Vm, Initial residual = 0.00013009, Final residual = 1.02475e-21, No Iterations 3
PIMPLE: iteration 2
DICPCG:  Solving for Vm, Initial residual = 5.47896e-17, Final residual = 5.47896e-17, No Iterations 0
ExecutionTime = 0.02 s  ClockTime = 0 s

Time = 0.0779148

DEBUG cell=0 t=0.0773542→0.0779148 step=0.000560538 V=1.03716 u1=2.128 u2=0.922443 u3=0 Iion=-1.34287
DEBUG cell=0 t=0.0773542→0.0779148 step=0.00504484 V=1.03716 u1=2.12884 u2=0.921964 u3=0 Iion=-1.34272
PIMPLE: iteration 1
DICPCG:  Solving for Vm, Initial residual = 0.000130022, Final residual = 1.02507e-21, No Iterations 3
PIMPLE: iteration 2
DICPCG:  Solving for Vm, Initial residual = 5.86973e-17, Final residual = 5.86973e-17, No Iterations 0
ExecutionTime = 0.02 s  ClockTime = 0 s

Time = 0.0784753

DEBUG cell=0 t=0.0779148→0.0784753 step=0.000560538 V=1.03743 u1=2.12884 u2=0.921964 u3=0 Iion=-1.34272
DEBUG cell=0 t=0.0779148→0.0784753 step=0.00504484 V=1.03743 u1=2.12967 u2=0.921484 u3=0 Iion=-1.34257
PIMPLE: iteration 1
DICPCG:  Solving for Vm, Initial residual = 0.000129955, Final residual = 1.02335e-21, No Iterations 3
PIMPLE: iteration 2
DICPCG:  Solving for Vm, Initial residual = 5.20166e-17, Final residual = 5.20166e-17, No Iterations 0
ExecutionTime = 0.03 s  ClockTime = 0 s

Time = 0.0790359

DEBUG cell=0 t=0.0784753→0.0790359 step=0.000560538 V=1.0377 u1=2.12967 u2=0.921484 u3=0 Iion=-1.34257
DEBUG cell=0 t=0.0784753→0.0790359 step=0.00504484 V=1.0377 u1=2.13051 u2=0.921006 u3=0 Iion=-1.34242
PIMPLE: iteration 1
DICPCG:  Solving for Vm, Initial residual = 0.000129887, Final residual = 1.02283e-21, No Iterations 3
PIMPLE: iteration 2
DICPCG:  Solving for Vm, Initial residual = 5.89281e-17, Final residual = 5.89281e-17, No Iterations 0
ExecutionTime = 0.03 s  ClockTime = 0 s

Time = 0.0795964

DEBUG cell=0 t=0.0790359→0.0795964 step=0.000560538 V=1.03797 u1=2.13051 u2=0.921006 u3=0 Iion=-1.34242
DEBUG cell=0 t=0.0790359→0.0795964 step=0.00504484 V=1.03797 u1=2.13135 u2=0.920527 u3=0 Iion=-1.34226
PIMPLE: iteration 1
DICPCG:  Solving for Vm, Initial residual = 0.00012982, Final residual = 1.02242e-21, No Iterations 3
PIMPLE: iteration 2
DICPCG:  Solving for Vm, Initial residual = 5.47327e-17, Final residual = 5.47327e-17, No Iterations 0
ExecutionTime = 0.03 s  ClockTime = 0 s

Time = 0.0801569

DEBUG cell=0 t=0.0795964→0.0801569 step=0.000560538 V=1.03824 u1=2.13135 u2=0.920527 u3=0 Iion=-1.34226
DEBUG cell=0 t=0.0795964→0.0801569 step=0.00504484 V=1.03824 u1=2.13219 u2=0.92005 u3=0 Iion=-1.34211
PIMPLE: iteration 1
DICPCG:  Solving for Vm, Initial residual = 0.000129753, Final residual = 1.02245e-21, No Iterations 3
PIMPLE: iteration 2
DICPCG:  Solving for Vm, Initial residual = 6.4513e-17, Final residual = 6.4513e-17, No Iterations 0
ExecutionTime = 0.03 s  ClockTime = 0 s

Time = 0.0807175

DEBUG cell=0 t=0.0801569→0.0807175 step=0.000560538 V=1.03851 u1=2.13219 u2=0.92005 u3=0 Iion=-1.34211
DEBUG cell=0 t=0.0801569→0.0807175 step=0.00504484 V=1.03851 u1=2.13302 u2=0.919572 u3=0 Iion=-1.34196
PIMPLE: iteration 1
DICPCG:  Solving for Vm, Initial residual = 0.000129685, Final residual = 1.02131e-21, No Iterations 3
PIMPLE: iteration 2
DICPCG:  Solving for Vm, Initial residual = 5.23543e-17, Final residual = 5.23543e-17, No Iterations 0
ExecutionTime = 0.03 s  ClockTime = 0 s

Time = 0.081278

DEBUG cell=0 t=0.0807175→0.081278 step=0.000560538 V=1.03878 u1=2.13302 u2=0.919572 u3=0 Iion=-1.34196
DEBUG cell=0 t=0.0807175→0.081278 step=0.00504484 V=1.03878 u1=2.13386 u2=0.919096 u3=0 Iion=-1.34181
PIMPLE: iteration 1
DICPCG:  Solving for Vm, Initial residual = 0.000129618, Final residual = 1.02092e-21, No Iterations 3
PIMPLE: iteration 2
DICPCG:  Solving for Vm, Initial residual = 5.78228e-17, Final residual = 5.78228e-17, No Iterations 0
ExecutionTime = 0.03 s  ClockTime = 0 s

Time = 0.0818385

DEBUG cell=0 t=0.081278→0.0818385 step=0.000560538 V=1.03905 u1=2.13386 u2=0.919096 u3=0 Iion=-1.34181
DEBUG cell=0 t=0.081278→0.0818385 step=0.00504484 V=1.03905 u1=2.1347 u2=0.918619 u3=0 Iion=-1.34166
PIMPLE: iteration 1
DICPCG:  Solving for Vm, Initial residual = 0.000129551, Final residual = 1.01971e-21, No Iterations 3
PIMPLE: iteration 2
DICPCG:  Solving for Vm, Initial residual = 4.88039e-17, Final residual = 4.88039e-17, No Iterations 0
ExecutionTime = 0.03 s  ClockTime = 0 s

Time = 0.0823991

DEBUG cell=0 t=0.0818385→0.0823991 step=0.000560538 V=1.03932 u1=2.1347 u2=0.918619 u3=0 Iion=-1.34166
DEBUG cell=0 t=0.0818385→0.0823991 step=0.00504484 V=1.03932 u1=2.13553 u2=0.918144 u3=0 Iion=-1.34151
PIMPLE: iteration 1
DICPCG:  Solving for Vm, Initial residual = 0.000129484, Final residual = 1.0197e-21, No Iterations 3
PIMPLE: iteration 2
DICPCG:  Solving for Vm, Initial residual = 4.07028e-17, Final residual = 4.07028e-17, No Iterations 0
ExecutionTime = 0.03 s  ClockTime = 0 s

Time = 0.0829596

DEBUG cell=0 t=0.0823991→0.0829596 step=0.000560538 V=1.03959 u1=2.13553 u2=0.918144 u3=0 Iion=-1.34151
DEBUG cell=0 t=0.0823991→0.0829596 step=0.00504484 V=1.03959 u1=2.13637 u2=0.917668 u3=0 Iion=-1.34136
PIMPLE: iteration 1
DICPCG:  Solving for Vm, Initial residual = 0.000129417, Final residual = 1.01916e-21, No Iterations 3
PIMPLE: iteration 2
DICPCG:  Solving for Vm, Initial residual = 4.00402e-17, Final residual = 4.00402e-17, No Iterations 0
ExecutionTime = 0.03 s  ClockTime = 0 s

Time = 0.0835202

DEBUG cell=0 t=0.0829596→0.0835202 step=0.000560538 V=1.03985 u1=2.13637 u2=0.917668 u3=0 Iion=-1.34136
DEBUG cell=0 t=0.0829596→0.0835202 step=0.00504484 V=1.03985 u1=2.13721 u2=0.917194 u3=0 Iion=-1.34121
PIMPLE: iteration 1
DICPCG:  Solving for Vm, Initial residual = 0.00012935, Final residual = 1.01861e-21, No Iterations 3
PIMPLE: iteration 2
DICPCG:  Solving for Vm, Initial residual = 6.11531e-17, Final residual = 6.11531e-17, No Iterations 0
ExecutionTime = 0.03 s  ClockTime = 0 s

Time = 0.0840807

DEBUG cell=0 t=0.0835202→0.0840807 step=0.000560538 V=1.04012 u1=2.13721 u2=0.917194 u3=0 Iion=-1.34121
DEBUG cell=0 t=0.0835202→0.0840807 step=0.00504484 V=1.04012 u1=2.13804 u2=0.916719 u3=0 Iion=-1.34106
PIMPLE: iteration 1
DICPCG:  Solving for Vm, Initial residual = 0.000129283, Final residual = 1.019e-21, No Iterations 3
PIMPLE: iteration 2
DICPCG:  Solving for Vm, Initial residual = 6.03551e-17, Final residual = 6.03551e-17, No Iterations 0
ExecutionTime = 0.03 s  ClockTime = 0 s

Time = 0.0846412

DEBUG cell=0 t=0.0840807→0.0846412 step=0.000560538 V=1.04039 u1=2.13804 u2=0.916719 u3=0 Iion=-1.34106
DEBUG cell=0 t=0.0840807→0.0846412 step=0.00504484 V=1.04039 u1=2.13888 u2=0.916245 u3=0 Iion=-1.34091
PIMPLE: iteration 1
DICPCG:  Solving for Vm, Initial residual = 0.000129216, Final residual = 1.01775e-21, No Iterations 3
PIMPLE: iteration 2
DICPCG:  Solving for Vm, Initial residual = 5.8515e-17, Final residual = 5.8515e-17, No Iterations 0
ExecutionTime = 0.03 s  ClockTime = 0 s

Time = 0.0852018

DEBUG cell=0 t=0.0846412→0.0852018 step=0.000560538 V=1.04066 u1=2.13888 u2=0.916245 u3=0 Iion=-1.34091
[...]
ExecutionTime = 0.06 s  ClockTime = 0 s

Time = 0.179372

DEBUG cell=0 t=0.178812→0.179372 step=0.000560538 V=1.0849 u1=2.27849 u2=0.843043 u3=0 Iion=-1.31801
DEBUG cell=0 t=0.178812→0.179372 step=0.00504484 V=1.0849 u1=2.27931 u2=0.842642 u3=0 Iion=-1.31789
PIMPLE: iteration 1
DICPCG:  Solving for Vm, Initial residual = 0.000118839, Final residual = 9.36349e-22, No Iterations 3
PIMPLE: iteration 2
DICPCG:  Solving for Vm, Initial residual = 4.51178e-17, Final residual = 4.51178e-17, No Iterations 0
ExecutionTime = 0.06 s  ClockTime = 0 s

Time = 0.179933

DEBUG cell=0 t=0.179372→0.179933 step=0.000560538 V=1.08516 u1=2.27931 u2=0.842642 u3=0 Iion=-1.31789
DEBUG cell=0 t=0.179372→0.179933 step=0.00504484 V=1.08516 u1=2.28014 u2=0.842242 u3=0 Iion=-1.31776
PIMPLE: iteration 1
DICPCG:  Solving for Vm, Initial residual = 0.000118782, Final residual = 9.3526e-22, No Iterations 3
PIMPLE: iteration 2
DICPCG:  Solving for Vm, Initial residual = 6.2725e-17, Final residual = 6.2725e-17, No Iterations 0
ExecutionTime = 0.06 s  ClockTime = 0 s

Time = 0.180493

DEBUG cell=0 t=0.179933→0.180493 step=0.000560538 V=1.08542 u1=2.28014 u2=0.842242 u3=0 Iion=-1.31776
DEBUG cell=0 t=0.179933→0.180493 step=0.00504484 V=1.08542 u1=2.28096 u2=0.841842 u3=0 Iion=-1.31764
PIMPLE: iteration 1
DICPCG:  Solving for Vm, Initial residual = 0.000118726, Final residual = 9.35759e-22, No Iterations 3
PIMPLE: iteration 2
DICPCG:  Solving for Vm, Initial residual = 6.62079e-17, Final residual = 6.62079e-17, No Iterations 0
ExecutionTime = 0.06 s  ClockTime = 0 s

Time = 0.181054

DEBUG cell=0 t=0.180493→0.181054 step=0.000560538 V=1.08567 u1=2.28096 u2=0.841842 u3=0 Iion=-1.31764
DEBUG cell=0 t=0.180493→0.181054 step=0.00504484 V=1.08567 u1=2.28179 u2=0.841442 u3=0 Iion=-1.31751
PIMPLE: iteration 1
DICPCG:  Solving for Vm, Initial residual = 0.000118669, Final residual = 9.36378e-22, No Iterations 3
PIMPLE: iteration 2
DICPCG:  Solving for Vm, Initial residual = 5.4952e-17, Final residual = 5.4952e-17, No Iterations 0
ExecutionTime = 0.06 s  ClockTime = 0 s

Time = 0.181614

DEBUG cell=0 t=0.181054→0.181614 step=0.000560538 V=1.08593 u1=2.28179 u2=0.841442 u3=0 Iion=-1.31751
DEBUG cell=0 t=0.181054→0.181614 step=0.00504484 V=1.08593 u1=2.28261 u2=0.841043 u3=0 Iion=-1.31739
PIMPLE: iteration 1
DICPCG:  Solving for Vm, Initial residual = 0.000118613, Final residual = 9.33758e-22, No Iterations 3
PIMPLE: iteration 2
DICPCG:  Solving for Vm, Initial residual = 5.51887e-17, Final residual = 5.51887e-17, No Iterations 0
ExecutionTime = 0.06 s  ClockTime = 0 s

Time = 0.182175

DEBUG cell=0 t=0.181614→0.182175 step=0.000560538 V=1.08619 u1=2.28261 u2=0.841043 u3=0 Iion=-1.31739
DEBUG cell=0 t=0.181614→0.182175 step=0.00504484 V=1.08619 u1=2.28344 u2=0.840644 u3=0 Iion=-1.31727
PIMPLE: iteration 1
DICPCG:  Solving for Vm, Initial residual = 0.000118557, Final residual = 9.33584e-22, No Iterations 3
PIMPLE: iteration 2
DICPCG:  Solving for Vm, Initial residual = 5.70481e-17, Final residual = 5.70481e-17, No Iterations 0
ExecutionTime = 0.06 s  ClockTime = 0 s

Time = 0.182735

DEBUG cell=0 t=0.182175→0.182735 step=0.000560538 V=1.08645 u1=2.28344 u2=0.840644 u3=0 Iion=-1.31727
DEBUG cell=0 t=0.182175→0.182735 step=0.00504484 V=1.08645 u1=2.28426 u2=0.840246 u3=0 Iion=-1.31714
PIMPLE: iteration 1
DICPCG:  Solving for Vm, Initial residual = 0.000118501, Final residual = 9.33179e-22, No Iterations 3
PIMPLE: iteration 2
DICPCG:  Solving for Vm, Initial residual = 4.29319e-17, Final residual = 4.29319e-17, No Iterations 0
ExecutionTime = 0.06 s  ClockTime = 0 s

Time = 0.183296

DEBUG cell=0 t=0.182735→0.183296 step=0.000560538 V=1.0867 u1=2.28426 u2=0.840246 u3=0 Iion=-1.31714
DEBUG cell=0 t=0.182735→0.183296 step=0.00504484 V=1.0867 u1=2.28509 u2=0.839847 u3=0 Iion=-1.31702
PIMPLE: iteration 1
DICPCG:  Solving for Vm, Initial residual = 0.000118445, Final residual = 9.32763e-22, No Iterations 3
PIMPLE: iteration 2
DICPCG:  Solving for Vm, Initial residual = 4.7164e-17, Final residual = 4.7164e-17, No Iterations 0
ExecutionTime = 0.06 s  ClockTime = 0 s

Time = 0.183856

DEBUG cell=0 t=0.183296→0.183856 step=0.000560538 V=1.08696 u1=2.28509 u2=0.839847 u3=0 Iion=-1.31702
DEBUG cell=0 t=0.183296→0.183856 step=0.00504484 V=1.08696 u1=2.28592 u2=0.83945 u3=0 Iion=-1.3169
PIMPLE: iteration 1
DICPCG:  Solving for Vm, Initial residual = 0.000118389, Final residual = 9.31993e-22, No Iterations 3
PIMPLE: iteration 2
DICPCG:  Solving for Vm, Initial residual = 4.15394e-17, Final residual = 4.15394e-17, No Iterations 0
ExecutionTime = 0.06 s  ClockTime = 0 s

Time = 0.184417

DEBUG cell=0 t=0.183856→0.184417 step=0.000560538 V=1.08722 u1=2.28592 u2=0.83945 u3=0 Iion=-1.3169
DEBUG cell=0 t=0.183856→0.184417 step=0.00504484 V=1.08722 u1=2.28674 u2=0.839052 u3=0 Iion=-1.31678
PIMPLE: iteration 1
DICPCG:  Solving for Vm, Initial residual = 0.000118333, Final residual = 9.32433e-22, No Iterations 3
PIMPLE: iteration 2
DICPCG:  Solving for Vm, Initial residual = 6.33545e-17, Final residual = 6.33545e-17, No Iterations 0
ExecutionTime = 0.06 s  ClockTime = 0 s

Time = 0.184978

DEBUG cell=0 t=0.184417→0.184978 step=0.000560538 V=1.08748 u1=2.28674 u2=0.839052 u3=0 Iion=-1.31678
DEBUG cell=0 t=0.184417→0.184978 step=0.00504484 V=1.08748 u1=2.28757 u2=0.838655 u3=0 Iion=-1.31665
PIMPLE: iteration 1
DICPCG:  Solving for Vm, Initial residual = 0.000118277, Final residual = 9.31958e-22, No Iterations 3
PIMPLE: iteration 2
DICPCG:  Solving for Vm, Initial residual = 6.79528e-17, Final residual = 6.79528e-17, No Iterations 0
ExecutionTime = 0.06 s  ClockTime = 0 s

Time = 0.185538

DEBUG cell=0 t=0.184978→0.185538 step=0.000560538 V=1.08773 u1=2.28757 u2=0.838655 u3=0 Iion=-1.31665
DEBUG cell=0 t=0.184978→0.185538 step=0.00504484 V=1.08773 u1=2.28839 u2=0.838259 u3=0 Iion=-1.31653
PIMPLE: iteration 1
DICPCG:  Solving for Vm, Initial residual = 0.000118221, Final residual = 9.30752e-22, No Iterations 3
PIMPLE: iteration 2
DICPCG:  Solving for Vm, Initial residual = 5.83383e-17, Final residual = 5.83383e-17, No Iterations 0
ExecutionTime = 0.06 s  ClockTime = 0 s

Time = 0.186099

DEBUG cell=0 t=0.185538→0.186099 step=0.000560538 V=1.08799 u1=2.28839 u2=0.838259 u3=0 Iion=-1.31653
DEBUG cell=0 t=0.185538→0.186099 step=0.00504484 V=1.08799 u1=2.28921 u2=0.837863 u3=0 Iion=-1.31641
PIMPLE: iteration 1
DICPCG:  Solving for Vm, Initial residual = 0.000118165, Final residual = 9.31036e-22, No Iterations 3
PIMPLE: iteration 2
DICPCG:  Solving for Vm, Initial residual = 4.94762e-17, Final residual = 4.94762e-17, No Iterations 0
ExecutionTime = 0.06 s  ClockTime = 0 s

Time = 0.186659

DEBUG cell=0 t=0.186099→0.186659 step=0.000560538 V=1.08825 u1=2.28921 u2=0.837863 u3=0 Iion=-1.31641
DEBUG cell=0 t=0.186099→0.186659 step=0.00504484 V=1.08825 u1=2.29004 u2=0.837467 u3=0 Iion=-1.31628
PIMPLE: iteration 1
DICPCG:  Solving for Vm, Initial residual = 0.000118109, Final residual = 9.29726e-22, No Iterations 3
PIMPLE: iteration 2
DICPCG:  Solving for Vm, Initial residual = 7.05211e-17, Final residual = 7.05211e-17, No Iterations 0
ExecutionTime = 0.06 s  ClockTime = 0 s

Time = 0.18722

DEBUG cell=0 t=0.186659→0.18722 step=0.000560538 V=1.08851 u1=2.29004 u2=0.837467 u3=0 Iion=-1.31628
DEBUG cell=0 t=0.186659→0.18722 step=0.00504484 V=1.08851 u1=2.29086 u2=0.837071 u3=0 Iion=-1.31616
PIMPLE: iteration 1
DICPCG:  Solving for Vm, Initial residual = 0.000118053, Final residual = 9.30142e-22, No Iterations 3
PIMPLE: iteration 2
DICPCG:  Solving for Vm, Initial residual = 5.44354e-17, Final residual = 5.44354e-17, No Iterations 0
ExecutionTime = 0.06 s  ClockTime = 0 s

Time = 0.18778

DEBUG cell=0 t=0.18722→0.18778 step=0.000560538 V=1.08876 u1=2.29086 u2=0.837071 u3=0 Iion=-1.31616
DEBUG cell=0 t=0.18722→0.18778 step=0.00504484 V=1.08876 u1=2.29169 u2=0.836676 u3=0 Iion=-1.31604
PIMPLE: iteration 1
DICPCG:  Solving for Vm, Initial residual = 0.000117998, Final residual = 9.29567e-22, No Iterations 3
PIMPLE: iteration 2
DICPCG:  Solving for Vm, Initial residual = 3.76101e-17, Final residual = 3.76101e-17, No Iterations 0
ExecutionTime = 0.06 s  ClockTime = 0 s

Time = 0.188341

DEBUG cell=0 t=0.18778→0.188341 step=0.000560538 V=1.08902 u1=2.29169 u2=0.836676 u3=0 Iion=-1.31604
DEBUG cell=0 t=0.18778→0.188341 step=0.00504484 V=1.08902 u1=2.29251 u2=0.836282 u3=0 Iion=-1.31592
PIMPLE: iteration 1
DICPCG:  Solving for Vm, Initial residual = 0.000117942, Final residual = 9.287e-22, No Iterations 3
PIMPLE: iteration 2
DICPCG:  Solving for Vm, Initial residual = 4.85579e-17, Final residual = 4.85579e-17, No Iterations 0
ExecutionTime = 0.06 s  ClockTime = 0 s

Time = 0.188901

DEBUG cell=0 t=0.188341→0.188901 step=0.000560538 V=1.08928 u1=2.29251 u2=0.836282 u3=0 Iion=-1.31592
DEBUG cell=0 t=0.188341→0.188901 step=0.00504484 V=1.08928 u1=2.29334 u2=0.835887 u3=0 Iion=-1.3158
PIMPLE: iteration 1
DICPCG:  Solving for Vm, Initial residual = 0.000117886, Final residual = 9.28061e-22, No Iterations 3
PIMPLE: iteration 2
DICPCG:  Solving for Vm, Initial residual = 5.68865e-17, Final residual = 5.68865e-17, No Iterations 0
ExecutionTime = 0.06 s  ClockTime = 0 s

Time = 0.189462

DEBUG cell=0 t=0.188901→0.189462 step=0.000560538 V=1.08953 u1=2.29334 u2=0.835887 u3=0 Iion=-1.3158
DEBUG cell=0 t=0.188901→0.189462 step=0.00504484 V=1.08953 u1=2.29416 u2=0.835493 u3=0 Iion=-1.31567
PIMPLE: iteration 1
DICPCG:  Solving for Vm, Initial residual = 0.000117831, Final residual = 9.27789e-22, No Iterations 3
PIMPLE: iteration 2
DICPCG:  Solving for Vm, Initial residual = 6.03577e-17, Final residual = 6.03577e-17, No Iterations 0
ExecutionTime = 0.06 s  ClockTime = 0 s

Time = 0.190022

DEBUG cell=0 t=0.189462→0.190022 step=0.000560538 V=1.08979 u1=2.29416 u2=0.835493 u3=0 Iion=-1.31567
DEBUG cell=0 t=0.189462→0.190022 step=0.00504484 V=1.08979 u1=2.29499 u2=0.8351 u3=0 Iion=-1.31555
PIMPLE: iteration 1
DICPCG:  Solving for Vm, Initial residual = 0.000117775, Final residual = 9.27267e-22, No Iterations 3
PIMPLE: iteration 2
DICPCG:  Solving for Vm, Initial residual = 5.36248e-17, Final residual = 5.36248e-17, No Iterations 0
ExecutionTime = 0.06 s  ClockTime = 0 s

Time = 0.190583

DEBUG cell=0 t=0.190022→0.190583 step=0.000560538 V=1.09005 u1=2.29499 u2=0.8351 u3=0 Iion=-1.31555
DEBUG cell=0 t=0.190022→0.190583 step=0.00504484 V=1.09005 u1=2.29581 u2=0.834707 u3=0 Iion=-1.31543
PIMPLE: iteration 1
DICPCG:  Solving for Vm, Initial residual = 0.00011772, Final residual = 9.27898e-22, No Iterations 3
PIMPLE: iteration 2
DICPCG:  Solving for Vm, Initial residual = 4.63975e-17, Final residual = 4.63975e-17, No Iterations 0
ExecutionTime = 0.06 s  ClockTime = 0 s

Time = 0.191143

DEBUG cell=0 t=0.190583→0.191143 step=0.000560538 V=1.0903 u1=2.29581 u2=0.834707 u3=0 Iion=-1.31543
DEBUG cell=0 t=0.190583→0.191143 step=0.00504484 V=1.0903 u1=2.29664 u2=0.834314 u3=0 Iion=-1.31531
PIMPLE: iteration 1
DICPCG:  Solving for Vm, Initial residual = 0.000117664, Final residual = 9.26367e-22, No Iterations 3
PIMPLE: iteration 2
DICPCG:  Solving for Vm, Initial residual = 4.29045e-17, Final residual = 4.29045e-17, No Iterations 0
ExecutionTime = 0.06 s  ClockTime = 0 s

Time = 0.191704

DEBUG cell=0 t=0.191143→0.191704 step=0.000560538 V=1.09056 u1=2.29664 u2=0.834314 u3=0 Iion=-1.31531
DEBUG cell=0 t=0.191143→0.191704 step=0.00504484 V=1.09056 u1=2.29746 u2=0.833921 u3=0 Iion=-1.31519
PIMPLE: iteration 1
DICPCG:  Solving for Vm, Initial residual = 0.000117609, Final residual = 9.26654e-22, No Iterations 3
PIMPLE: iteration 2
DICPCG:  Solving for Vm, Initial residual = 5.38356e-17, Final residual = 5.38356e-17, No Iterations 0
ExecutionTime = 0.06 s  ClockTime = 0 s

Time = 0.192265

DEBUG cell=0 t=0.191704→0.192265 step=0.000560538 V=1.09082 u1=2.29746 u2=0.833921 u3=0 Iion=-1.31519
DEBUG cell=0 t=0.191704→0.192265 step=0.00504484 V=1.09082 u1=2.29828 u2=0.833529 u3=0 Iion=-1.31507
PIMPLE: iteration 1
DICPCG:  Solving for Vm, Initial residual = 0.000117554, Final residual = 9.25539e-22, No Iterations 3
PIMPLE: iteration 2
DICPCG:  Solving for Vm, Initial residual = 4.4376e-17, Final residual = 4.4376e-17, No Iterations 0
ExecutionTime = 0.06 s  ClockTime = 0 s

Time = 0.192825

DEBUG cell=0 t=0.192265→0.192825 step=0.000560538 V=1.09107 u1=2.29828 u2=0.833529 u3=0 Iion=-1.31507
DEBUG cell=0 t=0.192265→0.192825 step=0.00504484 V=1.09107 u1=2.29911 u2=0.833137 u3=0 Iion=-1.31495
PIMPLE: iteration 1
DICPCG:  Solving for Vm, Initial residual = 0.000117499, Final residual = 9.25063e-22, No Iterations 3
PIMPLE: iteration 2
DICPCG:  Solving for Vm, Initial residual = 5.74142e-17, Final residual = 5.74142e-17, No Iterations 0
ExecutionTime = 0.07 s  ClockTime = 0 s

Time = 0.193386

DEBUG cell=0 t=0.192825→0.193386 step=0.000560538 V=1.09133 u1=2.29911 u2=0.833137 u3=0 Iion=-1.31495
DEBUG cell=0 t=0.192825→0.193386 step=0.00504484 V=1.09133 u1=2.29993 u2=0.832746 u3=0 Iion=-1.31483
PIMPLE: iteration 1
DICPCG:  Solving for Vm, Initial residual = 0.000117443, Final residual = 9.249e-22, No Iterations 3
PIMPLE: iteration 2
DICPCG:  Solving for Vm, Initial residual = 6.49796e-17, Final residual = 6.49796e-17, No Iterations 0
ExecutionTime = 0.07 s  ClockTime = 0 s

Time = 0.193946

DEBUG cell=0 t=0.193386→0.193946 step=0.000560538 V=1.09159 u1=2.29993 u2=0.832746 u3=0 Iion=-1.31483
DEBUG cell=0 t=0.193386→0.193946 step=0.00504484 V=1.09159 u1=2.30076 u2=0.832355 u3=0 Iion=-1.3147
PIMPLE: iteration 1
DICPCG:  Solving for Vm, Initial residual = 0.000117388, Final residual = 9.24949e-22, No Iterations 3
PIMPLE: iteration 2
DICPCG:  Solving for Vm, Initial residual = 4.32268e-17, Final residual = 4.32268e-17, No Iterations 0
ExecutionTime = 0.07 s  ClockTime = 0 s

Time = 0.194507

DEBUG cell=0 t=0.193946→0.194507 step=0.000560538 V=1.09184 u1=2.30076 u2=0.832355 u3=0 Iion=-1.3147
DEBUG cell=0 t=0.193946→0.194507 step=0.00504484 V=1.09184 u1=2.30158 u2=0.831964 u3=0 Iion=-1.31458
PIMPLE: iteration 1
DICPCG:  Solving for Vm, Initial residual = 0.000117333, Final residual = 9.24019e-22, No Iterations 3
PIMPLE: iteration 2
DICPCG:  Solving for Vm, Initial residual = 5.62561e-17, Final residual = 5.62561e-17, No Iterations 0
ExecutionTime = 0.07 s  ClockTime = 0 s

Time = 0.195067

DEBUG cell=0 t=0.194507→0.195067 step=0.000560538 V=1.0921 u1=2.30158 u2=0.831964 u3=0 Iion=-1.31458
DEBUG cell=0 t=0.194507→0.195067 step=0.00504484 V=1.0921 u1=2.3024 u2=0.831574 u3=0 Iion=-1.31446
PIMPLE: iteration 1
DICPCG:  Solving for Vm, Initial residual = 0.000117278, Final residual = 9.23371e-22, No Iterations 3
PIMPLE: iteration 2
DICPCG:  Solving for Vm, Initial residual = 5.11525e-17, Final residual = 5.11525e-17, No Iterations 0
ExecutionTime = 0.07 s  ClockTime = 0 s

Time = 0.195628

DEBUG cell=0 t=0.195067→0.195628 step=0.000560538 V=1.09236 u1=2.3024 u2=0.831574 u3=0 Iion=-1.31446
DEBUG cell=0 t=0.195067→0.195628 step=0.00504484 V=1.09236 u1=2.30323 u2=0.831184 u3=0 Iion=-1.31434
PIMPLE: iteration 1
DICPCG:  Solving for Vm, Initial residual = 0.000117223, Final residual = 9.2312e-22, No Iterations 3
PIMPLE: iteration 2
DICPCG:  Solving for Vm, Initial residual = 6.50428e-17, Final residual = 6.50428e-17, No Iterations 0
ExecutionTime = 0.07 s  ClockTime = 0 s

Time = 0.196188

DEBUG cell=0 t=0.195628→0.196188 step=0.000560538 V=1.09261 u1=2.30323 u2=0.831184 u3=0 Iion=-1.31434
DEBUG cell=0 t=0.195628→0.196188 step=0.00504484 V=1.09261 u1=2.30405 u2=0.830795 u3=0 Iion=-1.31422
PIMPLE: iteration 1
DICPCG:  Solving for Vm, Initial residual = 0.000117168, Final residual = 9.22769e-22, No Iterations 3
PIMPLE: iteration 2
DICPCG:  Solving for Vm, Initial residual = 4.55441e-17, Final residual = 4.55441e-17, No Iterations 0
ExecutionTime = 0.07 s  ClockTime = 0 s

Time = 0.196749

DEBUG cell=0 t=0.196188→0.196749 step=0.000560538 V=1.09287 u1=2.30405 u2=0.830795 u3=0 Iion=-1.31422
DEBUG cell=0 t=0.196188→0.196749 step=0.00504484 V=1.09287 u1=2.30488 u2=0.830406 u3=0 Iion=-1.3141
PIMPLE: iteration 1
DICPCG:  Solving for Vm, Initial residual = 0.000117113, Final residual = 9.22056e-22, No Iterations 3
PIMPLE: iteration 2
DICPCG:  Solving for Vm, Initial residual = 7.04714e-17, Final residual = 7.04714e-17, No Iterations 0
ExecutionTime = 0.07 s  ClockTime = 0 s

Time = 0.197309

DEBUG cell=0 t=0.196749→0.197309 step=0.000560538 V=1.09312 u1=2.30488 u2=0.830406 u3=0 Iion=-1.3141
DEBUG cell=0 t=0.196749→0.197309 step=0.00504484 V=1.09312 u1=2.3057 u2=0.830017 u3=0 Iion=-1.31398
PIMPLE: iteration 1
DICPCG:  Solving for Vm, Initial residual = 0.000117059, Final residual = 9.22875e-22, No Iterations 3
PIMPLE: iteration 2
DICPCG:  Solving for Vm, Initial residual = 4.68872e-17, Final residual = 4.68872e-17, No Iterations 0
ExecutionTime = 0.07 s  ClockTime = 0 s

Time = 0.19787

DEBUG cell=0 t=0.197309→0.19787 step=0.000560538 V=1.09338 u1=2.3057 u2=0.830017 u3=0 Iion=-1.31398
DEBUG cell=0 t=0.197309→0.19787 step=0.00504484 V=1.09338 u1=2.30652 u2=0.829628 u3=0 Iion=-1.31386
PIMPLE: iteration 1
DICPCG:  Solving for Vm, Initial residual = 0.000117004, Final residual = 9.21629e-22, No Iterations 3
PIMPLE: iteration 2
DICPCG:  Solving for Vm, Initial residual = 5.32008e-17, Final residual = 5.32008e-17, No Iterations 0
ExecutionTime = 0.07 s  ClockTime = 0 s

Time = 0.19843

DEBUG cell=0 t=0.19787→0.19843 step=0.000560538 V=1.09364 u1=2.30652 u2=0.829628 u3=0 Iion=-1.31386
DEBUG cell=0 t=0.19787→0.19843 step=0.00504484 V=1.09364 u1=2.30735 u2=0.82924 u3=0 Iion=-1.31374
PIMPLE: iteration 1
DICPCG:  Solving for Vm, Initial residual = 0.000116949, Final residual = 9.20823e-22, No Iterations 3
PIMPLE: iteration 2
DICPCG:  Solving for Vm, Initial residual = 5.52961e-17, Final residual = 5.52961e-17, No Iterations 0
ExecutionTime = 0.07 s  ClockTime = 0 s

Time = 0.198991

DEBUG cell=0 t=0.19843→0.198991 step=0.000560538 V=1.09389 u1=2.30735 u2=0.82924 u3=0 Iion=-1.31374
DEBUG cell=0 t=0.19843→0.198991 step=0.00504484 V=1.09389 u1=2.30817 u2=0.828853 u3=0 Iion=-1.31362
PIMPLE: iteration 1
DICPCG:  Solving for Vm, Initial residual = 0.000116894, Final residual = 9.20674e-22, No Iterations 3
PIMPLE: iteration 2
DICPCG:  Solving for Vm, Initial residual = 5.32999e-17, Final residual = 5.32999e-17, No Iterations 0
ExecutionTime = 0.07 s  ClockTime = 0 s

Time = 0.199552

DEBUG cell=0 t=0.198991→0.199552 step=0.000560538 V=1.09415 u1=2.30817 u2=0.828853 u3=0 Iion=-1.31362
DEBUG cell=0 t=0.198991→0.199552 step=0.00504484 V=1.09415 u1=2.30899 u2=0.828465 u3=0 Iion=-1.3135
PIMPLE: iteration 1
DICPCG:  Solving for Vm, Initial residual = 0.00011684, Final residual = 9.20101e-22, No Iterations 3
PIMPLE: iteration 2
DICPCG:  Solving for Vm, Initial residual = 4.85783e-17, Final residual = 4.85783e-17, No Iterations 0
ExecutionTime = 0.07 s  ClockTime = 0 s

Time = 0.200112

DEBUG cell=0 t=0.199552→0.200112 step=0.000560538 V=1.0944 u1=2.30899 u2=0.828465 u3=0 Iion=-1.3135
DEBUG cell=0 t=0.199552→0.200112 step=0.00504484 V=1.0944 u1=2.30982 u2=0.828078 u3=0 Iion=-1.31338
PIMPLE: iteration 1
DICPCG:  Solving for Vm, Initial residual = 0.000116785, Final residual = 9.19425e-22, No Iterations 3
PIMPLE: iteration 2
DICPCG:  Solving for Vm, Initial residual = 4.96821e-17, Final residual = 4.96821e-17, No Iterations 0
Running postProcess via tmanufacturedFDA.

Simulation summary:
-------------------
Number of cells (N)   = 40
Solver type           = Implicit
Grid spacing (dx)     = 0.025
Time step (dt)        = 0.000560538
Number of steps       = 357
Final simulation time = 0.200112
-------------------

Manufactured-solution error summary (t = 0.200112):
-------------------------------------------------
Field     L1-error       L2-error       Linf-error
Vm     9.73533e-06   1.35588e-05   2.77531e-05
u1     2.71031e-05   3.05787e-05   5.14542e-05
u2     7.12599e-06   8.48767e-06   1.77648e-05
-------------------------------------------------

ExecutionTime = 0.07 s  ClockTime = 0 s


End

Finalising parallel run
