/*---------------------------------------------------------------------------*\
| =========                 |                                                 |
| \\      /  F ield         | OpenFOAM: The Open Source CFD Toolbox           |
|  \\    /   O peration     | Version:  2412                                  |
|   \\  /    A nd           | Website:  www.openfoam.com                      |
|    \\/     M anipulation  |                                                 |
\*---------------------------------------------------------------------------*/
Build  : _8dbc61e11c-20241220 OPENFOAM=2412 version=v2412
Arch   : "LSB;label=32;scalar=64"
Exec   : cardiacFoam -parallel
Date   : Apr 09 2026
Time   : 22:16:11
Host   : macbook
PID    : 1104
I/O    : uncollated
Case   : /Users/simaocastro/cardiacFoamEPsacred/cardiacFoamsacred/tutorials/bidomainFDA
nProcs : 6
Hosts  :
(
    (macbook 6)
)
Pstream initialized with:
    floatTransfer      : false
    maxCommsSize       : 0
    nProcsSimpleSum    : 0
    nonBlockingExchange: 0 (tuning: 0)
    exchange algorithm : 0
    commsType          : nonBlocking
    polling iterations : 0
trapFpe: Floating point exception trapping enabled (FOAM_SIGFPE).
fileModificationChecking : Monitoring run-time modified files using timeStampMaster (fileModificationSkew 5, maxFileModificationPolls 20)
allowSystemOperations : Allowing user-supplied system call operations

// * * * * * * * * * * * * * * * * * * * * * * * * * * * * * * * * * * * * * //
Create time

Selecting physicsModel electroModel

Selecting myocardiumSolver bidomainSolver
Selecting electroVerificationModel manufacturedFDABidomainVerifier

Selecting myocardiumSolver bidomainSolver

conductivityIntracellular not found on disk, using value from "/Users/simaocastro/cardiacFoamEPsacred/cardiacFoamsacred/tutorials/bidomainFDA/processor0/../constant/electroProperties/bidomainSolverCoeffs"


conductivityExtracellular not found on disk, using value from "/Users/simaocastro/cardiacFoamEPsacred/cardiacFoamsacred/tutorials/bidomainFDA/processor0/../constant/electroProperties/bidomainSolverCoeffs"

Using verification model manufacturedFDABidomainVerifier.
Running preProcess with fields 3(u1 u2 u3).
Selecting electrophysicsAdvanceScheme staggeredElectrophysicsAdvanceScheme
Time = 0.00224215


PIMPLE: no residual control data found. Calculations will employ 2 corrector loops

DEBUG cell=0 t=0→0.00224215 step=0.00224215 V=-0.0784591 u1=1.44654 u2=0.809776 u3=0 Iion=0
Selecting ODE solver RKF45
DEBUG cell=0 t=0→0.00224215 step=0.0201793 V=-0.0784591 u1=1.44987 u2=0.807965 u3=0 Iion=0.0867051
[0] Bidomain phiE reference debug: proc=0 point=(0.125 0.05 0.05) refCell=-1 ownsReference=0
[3] Bidomain phiE reference debug: proc=3 point=(0.125 0.05 0.05) refCell=2 ownsReference=1
[2] Bidomain phiE reference debug: proc=2 point=(0.125 0.05 0.05) refCell=-1 ownsReference=0
[5] Bidomain phiE reference debug: proc=5 point=(0.125 0.05 0.05) refCell=-1 ownsReference=0
Bidomain phiE reference summary: ownerCount=1 ownerProc=3 point=(0.125 0.05 0.05)
[1] Bidomain phiE reference debug: proc=1 point=(0.125 0.05 0.05) refCell=-1 ownsReference=0
[4] Bidomain phiE reference debug: proc=4 point=(0.125 0.05 0.05) refCell=-1 ownsReference=0
PIMPLE: iteration 1
[0] Bidomain phiE solve debug: proc=0 entering solve, refCell=-1 refValue=0 outerIter=1
[2] Bidomain phiE solve debug: proc=2 entering solve, refCell=-1 refValue=0 outerIter=1
[3] Bidomain phiE solve debug: proc=3 entering solve, refCell=2 refValue=0 outerIter=1
[5] Bidomain phiE solve debug: proc=5 entering solve, refCell=-1 refValue=0 outerIter=1
[4] Bidomain phiE solve debug: proc=4 entering solve, refCell=-1 refValue=0 outerIter=1
[1] Bidomain phiE solve debug: proc=1 entering solve, refCell=-1 refValue=0 outerIter=1
DICPCG:  Solving for phiE, Initial residual = 0.000781048, Final residual = 6.12842e-18, No Iterations 11
[0] Bidomain phiE solve debug: proc=0 completed solve, outerIter=1
[1] Bidomain phiE solve debug: proc=1 completed solve, outerIter=1
[3] Bidomain phiE solve debug: proc=3 completed solve, outerIter=1
[5] Bidomain phiE solve debug: proc=5 completed solve, outerIter=1
[4] Bidomain phiE solve debug: proc=4 completed solve, outerIter=1
[2] Bidomain phiE solve debug: proc=2 completed solve, outerIter=1
DICPCG:  Solving for Vm, Initial residual = 0.00055717, Final residual = 7.97802e-17, No Iterations 4
PIMPLE: iteration 2
[1] Bidomain phiE solve debug: proc=1 entering solve, refCell=-1 refValue=0 outerIter=2
[5] Bidomain phiE solve debug: proc=5 entering solve, refCell=-1 refValue=0 outerIter=2
[2] Bidomain phiE solve debug: proc=2 entering solve, refCell=-1 refValue=0 outerIter=2
[3] Bidomain phiE solve debug: proc=3 entering solve, refCell=2 refValue=0 outerIter=2
[4] Bidomain phiE solve debug: proc=4 entering solve, refCell=-1 refValue=0 outerIter=2
[0] Bidomain phiE solve debug: proc=0 entering solve, refCell=-1 refValue=0 outerIter=2
DICPCG:  Solving for phiE, Initial residual = 0.000141315, Final residual = 1.7582e-18, No Iterations 11
[0] Bidomain phiE solve debug: proc=0 completed solve, outerIter=2
[1] Bidomain phiE solve debug: proc=1 completed solve, outerIter=2
[5] Bidomain phiE solve debug: proc=5 completed solve, outerIter=2
[3] Bidomain phiE solve debug: proc=3 completed solve, outerIter=2
[2] Bidomain phiE solve debug: proc=2 completed solve, outerIter=2
[4] Bidomain phiE solve debug: proc=4 completed solve, outerIter=2
DICPCG:  Solving for Vm, Initial residual = 1.59457e-07, Final residual = 4.16838e-18, No Iterations 3
ExecutionTime = 0 s  ClockTime = 0 s

Time = 0.0044843

DEBUG cell=0 t=0.00224215→0.0044843 step=0.00224215 V=-0.0785466 u1=1.44987 u2=0.807965 u3=0 Iion=0.0867051
[3] Bidomain phiE reference debug: proc=3 point=(0.125 0.05 0.05) refCell=2 ownsReference=1
DEBUG cell=0 t=0.00224215→0.0044843 step=0.0201793 V=-0.0785466 u1=1.4532 u2=0.806161 u3=0 Iion=0.0866269
[0] Bidomain phiE reference debug: proc=0 point=(0.125 0.05 0.05) refCell=-1 ownsReference=0
[1] Bidomain phiE reference debug: proc=1 point=(0.125 0.05 0.05) refCell=-1 ownsReference=0
[5] Bidomain phiE reference debug: proc=5 point=(0.125 0.05 0.05) refCell=-1 ownsReference=0
[2] Bidomain phiE reference debug: proc=2 point=(0.125 0.05 0.05) refCell=-1 ownsReference=0
[4] Bidomain phiE reference debug: proc=4 point=(0.125 0.05 0.05) refCell=-1 ownsReference=0
Bidomain phiE reference summary: ownerCount=1 ownerProc=3 point=(0.125 0.05 0.05)
PIMPLE: iteration 1
[1] Bidomain phiE solve debug: proc=1 entering solve, refCell=-1 refValue=0 outerIter=1
[4] Bidomain phiE solve debug: proc=4 entering solve, refCell=-1 refValue=0 outerIter=1
[2] Bidomain phiE solve debug: proc=2 entering solve, refCell=-1 refValue=0 outerIter=1
[5] Bidomain phiE solve debug: proc=5 entering solve, refCell=-1 refValue=0 outerIter=1
[0] Bidomain phiE solve debug: proc=0 entering solve, refCell=-1 refValue=0 outerIter=1
[3] Bidomain phiE solve debug: proc=3 entering solve, refCell=2 refValue=0 outerIter=1
DICPCG:  Solving for phiE, Initial residual = 4.0397e-08, Final residual = 7.16581e-22, No Iterations 11
[0] Bidomain phiE solve debug: proc=0 completed solve, outerIter=1
[1] Bidomain phiE solve debug: proc=1 completed solve, outerIter=1
[3] Bidomain phiE solve debug: proc=3 completed solve, outerIter=1
[5] Bidomain phiE solve debug: proc=5 completed solve, outerIter=1
[2] Bidomain phiE solve debug: proc=2 completed solve, outerIter=1
[4] Bidomain phiE solve debug: proc=4 completed solve, outerIter=1
DICPCG:  Solving for Vm, Initial residual = 0.000556185, Final residual = 5.02113e-18, No Iterations 4
PIMPLE: iteration 2
[1] Bidomain phiE solve debug: proc=1 entering solve, refCell=-1 refValue=0 outerIter=2
[2] Bidomain phiE solve debug: proc=2 entering solve, refCell=-1 refValue=0 outerIter=2
[5] Bidomain phiE solve debug: proc=5 entering solve, refCell=-1 refValue=0 outerIter=2
[0] Bidomain phiE solve debug: proc=0 entering solve, refCell=-1 refValue=0 outerIter=2
[3] Bidomain phiE solve debug: proc=3 entering solve, refCell=2 refValue=0 outerIter=2
[4] Bidomain phiE solve debug: proc=4 entering solve, refCell=-1 refValue=0 outerIter=2
DICPCG:  Solving for phiE, Initial residual = 0.000141066, Final residual = 1.73266e-18, No Iterations 11
[0] Bidomain phiE solve debug: proc=0 completed solve, outerIter=2
[1] Bidomain phiE solve debug: proc=1 completed solve, outerIter=2
[3] Bidomain phiE solve debug: proc=3 completed solve, outerIter=2
[5] Bidomain phiE solve debug: proc=5 completed solve, outerIter=2
[2] Bidomain phiE solve debug: proc=2 completed solve, outerIter=2
[4] Bidomain phiE solve debug: proc=4 completed solve, outerIter=2
DICPCG:  Solving for Vm, Initial residual = 1.06131e-07, Final residual = 3.6935e-19, No Iterations 3
ExecutionTime = 0 s  ClockTime = 0 s

Time = 0.00672645

DEBUG cell=0 t=0.0044843→0.00672645 step=0.00224215 V=-0.078634 u1=1.4532 u2=0.806161 u3=0 Iion=0.0866269
DEBUG cell=0 t=0.0044843→0.00672645 step=0.0201793 V=-0.078634 u1=1.45653 u2=0.804366 u3=0 Iion=0.0865489
[1] Bidomain phiE reference debug: proc=1 point=(0.125 0.05 0.05) refCell=-1 ownsReference=0
[3] Bidomain phiE reference debug: proc=3 point=(0.125 0.05 0.05) refCell=2 ownsReference=1
[0] Bidomain phiE reference debug: proc=0 point=(0.125 0.05 0.05) refCell=-1 ownsReference=0
Bidomain phiE reference summary: ownerCount=1 ownerProc=3 point=(0.125 0.05 0.05)
PIMPLE: iteration 1
[5] Bidomain phiE reference debug: proc=5 point=(0.125 0.05 0.05) refCell=-1 ownsReference=0
[4] Bidomain phiE reference debug: proc=4 point=(0.125 0.05 0.05) refCell=-1 ownsReference=0
[2] Bidomain phiE reference debug: proc=2 point=(0.125 0.05 0.05) refCell=-1 ownsReference=0
[3] Bidomain phiE solve debug: proc=3 entering solve, refCell=2 refValue=0 outerIter=1
[4] Bidomain phiE solve debug: proc=4 entering solve, refCell=-1 refValue=0 outerIter=1
[5] Bidomain phiE solve debug: proc=5 entering solve, refCell=-1 refValue=0 outerIter=1
[1] Bidomain phiE solve debug: proc=1 entering solve, refCell=-1 refValue=0 outerIter=1
[0] Bidomain phiE solve debug: proc=0 entering solve, refCell=-1 refValue=0 outerIter=1
[2] Bidomain phiE solve debug: proc=2 entering solve, refCell=-1 refValue=0 outerIter=1
DICPCG:  Solving for phiE, Initial residual = 2.68874e-08, Final residual = 2.85228e-22, No Iterations 11
[0] Bidomain phiE solve debug: proc=0 completed solve, outerIter=1
[1] Bidomain phiE solve debug: proc=1 completed solve, outerIter=1
[3] Bidomain phiE solve debug: proc=3 completed solve, outerIter=1
[4] Bidomain phiE solve debug: proc=4 completed solve, outerIter=1
[2] Bidomain phiE solve debug: proc=2 completed solve, outerIter=1
[5] Bidomain phiE solve debug: proc=5 completed solve, outerIter=1
DICPCG:  Solving for Vm, Initial residual = 0.000555012, Final residual = 5.01055e-18, No Iterations 4
PIMPLE: iteration 2
[3] Bidomain phiE solve debug: proc=3 entering solve, refCell=2 refValue=0 outerIter=2
[4] Bidomain phiE solve debug: proc=4 entering solve, refCell=-1 refValue=0 outerIter=2
[5] Bidomain phiE solve debug: proc=5 entering solve, refCell=-1 refValue=0 outerIter=2
[1] Bidomain phiE solve debug: proc=1 entering solve, refCell=-1 refValue=0 outerIter=2
[0] Bidomain phiE solve debug: proc=0 entering solve, refCell=-1 refValue=0 outerIter=2
[2] Bidomain phiE solve debug: proc=2 entering solve, refCell=-1 refValue=0 outerIter=2
DICPCG:  Solving for phiE, Initial residual = 0.000140768, Final residual = 1.01196e-18, No Iterations 11
[3] Bidomain phiE solve debug: proc=3 completed solve, outerIter=2
[1] Bidomain phiE solve debug: proc=1 completed solve, outerIter=2
[4] Bidomain phiE solve debug: proc=4 completed solve, outerIter=2
[5] Bidomain phiE solve debug: proc=5 completed solve, outerIter=2
[2] Bidomain phiE solve debug: proc=2 completed solve, outerIter=2
[0] Bidomain phiE solve debug: proc=0 completed solve, outerIter=2
DICPCG:  Solving for Vm, Initial residual = 1.05908e-07, Final residual = 3.68582e-19, No Iterations 3
ExecutionTime = 0 s  ClockTime = 0 s

Time = 0.0089686

DEBUG cell=0 t=0.00672645→0.0089686 step=0.00224215 V=-0.0787213 u1=1.45653 u2=0.804366 u3=0 Iion=0.0865489
DEBUG cell=0 t=0.00672645→0.0089686 step=0.0201793 V=-0.0787213 u1=1.45987 u2=0.802579 u3=0 Iion=0.0864713
[3] Bidomain phiE reference debug: proc=3 point=(0.125 0.05 0.05) refCell=2 ownsReference=1
[0] Bidomain phiE reference debug: proc=0 point=(0.125 0.05 0.05) refCell=-1 ownsReference=0
[5] Bidomain phiE reference debug: proc=5 point=(0.125 0.05 0.05) refCell=-1 ownsReference=0
[1] Bidomain phiE reference debug: proc=1 point=(0.125 0.05 0.05) refCell=-1 ownsReference=0
[4] Bidomain phiE reference debug: proc=4 point=(0.125 0.05 0.05) refCell=-1 ownsReference=0
[2] Bidomain phiE reference debug: proc=2 point=(0.125 0.05 0.05) refCell=-1 ownsReference=0
Bidomain phiE reference summary: ownerCount=1 ownerProc=3 point=(0.125 0.05 0.05)
PIMPLE: iteration 1
[1] Bidomain phiE solve debug: proc=1 entering solve, refCell=-1 refValue=0 outerIter=1
[2] Bidomain phiE solve debug: proc=2 entering solve, refCell=-1 refValue=0 outerIter=1
[0] Bidomain phiE solve debug: proc=0 entering solve, refCell=-1 refValue=0 outerIter=1
[4] Bidomain phiE solve debug: proc=4 entering solve, refCell=-1 refValue=0 outerIter=1
[5] Bidomain phiE solve debug: proc=5 entering solve, refCell=-1 refValue=0 outerIter=1
[3] Bidomain phiE solve debug: proc=3 entering solve, refCell=2 refValue=0 outerIter=1
DICPCG:  Solving for phiE, Initial residual = 2.68307e-08, Final residual = 2.22786e-22, No Iterations 11
[0] Bidomain phiE solve debug: proc=0 completed solve, outerIter=1
[3] Bidomain phiE solve debug: proc=3 completed solve, outerIter=1
[1] Bidomain phiE solve debug: proc=1 completed solve, outerIter=1
[5] Bidomain phiE solve debug: proc=5 completed solve, outerIter=1
[4] Bidomain phiE solve debug: proc=4 completed solve, outerIter=1
[2] Bidomain phiE solve debug: proc=2 completed solve, outerIter=1
DICPCG:  Solving for Vm, Initial residual = 0.000553798, Final residual = 4.99959e-18, No Iterations 4
PIMPLE: iteration 2
[1] Bidomain phiE solve debug: proc=1 entering solve, refCell=-1 refValue=0 outerIter=2
[5] Bidomain phiE solve debug: proc=5 entering solve, refCell=-1 refValue=0 outerIter=2
[4] Bidomain phiE solve debug: proc=4 entering solve, refCell=-1 refValue=0 outerIter=2
[2] Bidomain phiE solve debug: proc=2 entering solve, refCell=-1 refValue=0 outerIter=2
[0] Bidomain phiE solve debug: proc=0 entering solve, refCell=-1 refValue=0 outerIter=2
[3] Bidomain phiE solve debug: proc=3 entering solve, refCell=2 refValue=0 outerIter=2
DICPCG:  Solving for phiE, Initial residual = 0.00014046, Final residual = 1.27534e-18, No Iterations 11
[0] Bidomain phiE solve debug: proc=0 completed solve, outerIter=2
[1] Bidomain phiE solve debug: proc=1 completed solve, outerIter=2
[5] Bidomain phiE solve debug: proc=5 completed solve, outerIter=2
[3] Bidomain phiE solve debug: proc=3 completed solve, outerIter=2
[4] Bidomain phiE solve debug: proc=4 completed solve, outerIter=2
[2] Bidomain phiE solve debug: proc=2 completed solve, outerIter=2
DICPCG:  Solving for Vm, Initial residual = 1.05676e-07, Final residual = 3.67786e-19, No Iterations 3
ExecutionTime = 0 s  ClockTime = 0 s

Time = 0.0112108

DEBUG cell=0 t=0.0089686→0.0112108 step=0.00224215 V=-0.0788086 u1=1.45987 u2=0.802579 u3=0 Iion=0.0864713
[3] Bidomain phiE reference debug: proc=3 point=(0.125 0.05 0.05) refCell=2 ownsReference=1
DEBUG cell=0 t=0.0089686→0.0112108 step=0.0201793 V=-0.0788086 u1=1.4632 u2=0.800799 u3=0 Iion=0.086394
[1] Bidomain phiE reference debug: proc=1 point=(0.125 0.05 0.05) refCell=-1 ownsReference=0
[5] Bidomain phiE reference debug: proc=5 point=(0.125 0.05 0.05) refCell=-1 ownsReference=0
[0] Bidomain phiE reference debug: proc=0 point=(0.125 0.05 0.05) refCell=-1 ownsReference=0
[4] Bidomain phiE reference debug: proc=4 point=(0.125 0.05 0.05) refCell=-1 ownsReference=0
[2] Bidomain phiE reference debug: proc=2 point=(0.125 0.05 0.05) refCell=-1 ownsReference=0
Bidomain phiE reference summary: ownerCount=1 ownerProc=3 point=(0.125 0.05 0.05)
PIMPLE: iteration 1
[1] Bidomain phiE solve debug: proc=1 entering solve, refCell=-1 refValue=0 outerIter=1
[2] Bidomain phiE solve debug: proc=2 entering solve, refCell=-1 refValue=0 outerIter=1
[3] Bidomain phiE solve debug: proc=3 entering solve, refCell=2 refValue=0 outerIter=1
[0] Bidomain phiE solve debug: proc=0 entering solve, refCell=-1 refValue=0 outerIter=1
[4] Bidomain phiE solve debug: proc=4 entering solve, refCell=-1 refValue=0 outerIter=1
[5] Bidomain phiE solve debug: proc=5 entering solve, refCell=-1 refValue=0 outerIter=1
DICPCG:  Solving for phiE, Initial residual = 2.67721e-08, Final residual = 4.38923e-22, No Iterations 11
[0] Bidomain phiE solve debug: proc=0 completed solve, outerIter=1
[3] Bidomain phiE solve debug: proc=3 completed solve, outerIter=1
[1] Bidomain phiE solve debug: proc=1 completed solve, outerIter=1
[5] Bidomain phiE solve debug: proc=5 completed solve, outerIter=1
[2] Bidomain phiE solve debug: proc=2 completed solve, outerIter=1
[4] Bidomain phiE solve debug: proc=4 completed solve, outerIter=1
DICPCG:  Solving for Vm, Initial residual = 0.000552574, Final residual = 4.98854e-18, No Iterations 4
PIMPLE: iteration 2
[3] Bidomain phiE solve debug: proc=3 entering solve, refCell=2 refValue=0 outerIter=2
[1] Bidomain phiE solve debug: proc=1 entering solve, refCell=-1 refValue=0 outerIter=2
[0] Bidomain phiE solve debug: proc=0 entering solve, refCell=-1 refValue=0 outerIter=2
[5] Bidomain phiE solve debug: proc=5 entering solve, refCell=-1 refValue=0 outerIter=2
[2] Bidomain phiE solve debug: proc=2 entering solve, refCell=-1 refValue=0 outerIter=2
[4] Bidomain phiE solve debug: proc=4 entering solve, refCell=-1 refValue=0 outerIter=2
DICPCG:  Solving for phiE, Initial residual = 0.000140149, Final residual = 1.15263e-18, No Iterations 11
[0] Bidomain phiE solve debug: proc=0 completed solve, outerIter=2
[1] Bidomain phiE solve debug: proc=1 completed solve, outerIter=2
[5] Bidomain phiE solve debug: proc=5 completed solve, outerIter=2
[3] Bidomain phiE solve debug: proc=3 completed solve, outerIter=2
[2] Bidomain phiE solve debug: proc=2 completed solve, outerIter=2
[4] Bidomain phiE solve debug: proc=4 completed solve, outerIter=2
DICPCG:  Solving for Vm, Initial residual = 1.05443e-07, Final residual = 3.66984e-19, No Iterations 3
ExecutionTime = 0 s  ClockTime = 0 s

Time = 0.0134529

DEBUG cell=0 t=0.0112108→0.0134529 step=0.00224215 V=-0.0788957 u1=1.4632 u2=0.800799 u3=0 Iion=0.086394
[3] Bidomain phiE reference debug: proc=3 point=(0.125 0.05 0.05) refCell=2 ownsReference=1
[1] Bidomain phiE reference debug: proc=1 point=(0.125 0.05 0.05) refCell=-1 ownsReference=0
[5] Bidomain phiE reference debug: proc=5 point=(0.125 0.05 0.05) refCell=-1 ownsReference=0
DEBUG cell=0 t=0.0112108→0.0134529 step=0.0201793 V=-0.0788957 u1=1.46653 u2=0.799027 u3=0 Iion=0.0863169
[0] Bidomain phiE reference debug: proc=0 point=(0.125 0.05 0.05) refCell=-1 ownsReference=0
Bidomain phiE reference summary: ownerCount=1 ownerProc=3 point=(0.125 0.05 0.05)
[4] Bidomain phiE reference debug: proc=4 point=(0.125 0.05 0.05) refCell=-1 ownsReference=0
[2] Bidomain phiE reference debug: proc=2 point=(0.125 0.05 0.05) refCell=-1 ownsReference=0
PIMPLE: iteration 1
[1] Bidomain phiE solve debug: proc=1 entering solve, refCell=-1 refValue=0 outerIter=1
[2] Bidomain phiE solve debug: proc=2 entering solve, refCell=-1 refValue=0 outerIter=1
[3] Bidomain phiE solve debug: proc=3 entering solve, refCell=2 refValue=0 outerIter=1
[0] Bidomain phiE solve debug: proc=0 entering solve, refCell=-1 refValue=0 outerIter=1
[5] Bidomain phiE solve debug: proc=5 entering solve, refCell=-1 refValue=0 outerIter=1
[4] Bidomain phiE solve debug: proc=4 entering solve, refCell=-1 refValue=0 outerIter=1
DICPCG:  Solving for phiE, Initial residual = 2.6713e-08, Final residual = 3.00713e-22, No Iterations 11
[0] Bidomain phiE solve debug: proc=0 completed solve, outerIter=1
[3] Bidomain phiE solve debug: proc=3 completed solve, outerIter=1
[5] Bidomain phiE solve debug: proc=5 completed solve, outerIter=1
[1] Bidomain phiE solve debug: proc=1 completed solve, outerIter=1
[2] Bidomain phiE solve debug: proc=2 completed solve, outerIter=1
[4] Bidomain phiE solve debug: proc=4 completed solve, outerIter=1
DICPCG:  Solving for Vm, Initial residual = 0.000551351, Final residual = 4.97749e-18, No Iterations 4
PIMPLE: iteration 2
[3] Bidomain phiE solve debug: proc=3 entering solve, refCell=2 refValue=0 outerIter=2
[1] Bidomain phiE solve debug: proc=1 entering solve, refCell=-1 refValue=0 outerIter=2
[0] Bidomain phiE solve debug: proc=0 entering solve, refCell=-1 refValue=0 outerIter=2
[2] Bidomain phiE solve debug: proc=2 entering solve, refCell=-1 refValue=0 outerIter=2
[4] Bidomain phiE solve debug: proc=4 entering solve, refCell=-1 refValue=0 outerIter=2
[5] Bidomain phiE solve debug: proc=5 entering solve, refCell=-1 refValue=0 outerIter=2
DICPCG:  Solving for phiE, Initial residual = 0.000139839, Final residual = 1.41531e-18, No Iterations 11
[3] Bidomain phiE solve debug: proc=3 completed solve, outerIter=2
[0] Bidomain phiE solve debug: proc=0 completed solve, outerIter=2
[1] Bidomain phiE solve debug: proc=1 completed solve, outerIter=2
[5] Bidomain phiE solve debug: proc=5 completed solve, outerIter=2
[2] Bidomain phiE solve debug: proc=2 completed solve, outerIter=2
[4] Bidomain phiE solve debug: proc=4 completed solve, outerIter=2
DICPCG:  Solving for Vm, Initial residual = 1.05209e-07, Final residual = 3.66181e-19, No Iterations 3
ExecutionTime = 0 s  ClockTime = 0 s

Time = 0.0156951

[3] Bidomain phiE reference debug: proc=3 point=(0.125 0.05 0.05) refCell=2 ownsReference=1
DEBUG cell=0 t=0.0134529→0.0156951 step=0.00224215 V=-0.0789828 u1=1.46653 u2=0.799027 u3=0 Iion=0.0863169
DEBUG cell=0 t=0.0134529→0.0156951 step=0.0201793 V=-0.0789828 u1=1.46986 u2=0.797264 u3=0 Iion=0.0862401
[0] Bidomain phiE reference debug: proc=0 point=(0.125 0.05 0.05) refCell=-1 ownsReference=0
[5] Bidomain phiE reference debug: proc=5 point=(0.125 0.05 0.05) refCell=-1 ownsReference=0
[1] Bidomain phiE reference debug: proc=1 point=(0.125 0.05 0.05) refCell=-1 ownsReference=0
Bidomain phiE reference summary: ownerCount=1 ownerProc=3 point=(0.125 0.05 0.05)
[4] Bidomain phiE reference debug: proc=4 point=(0.125 0.05 0.05) refCell=-1 ownsReference=0
[2] Bidomain phiE reference debug: proc=2 point=(0.125 0.05 0.05) refCell=-1 ownsReference=0
PIMPLE: iteration 1
[3] Bidomain phiE solve debug: proc=3 entering solve, refCell=2 refValue=0 outerIter=1
[1] Bidomain phiE solve debug: proc=1 entering solve, refCell=-1 refValue=0 outerIter=1
[2] Bidomain phiE solve debug: proc=2 entering solve, refCell=-1 refValue=0 outerIter=1
[4] Bidomain phiE solve debug: proc=4 entering solve, refCell=-1 refValue=0 outerIter=1
[5] Bidomain phiE solve debug: proc=5 entering solve, refCell=-1 refValue=0 outerIter=1
[0] Bidomain phiE solve debug: proc=0 entering solve, refCell=-1 refValue=0 outerIter=1
DICPCG:  Solving for phiE, Initial residual = 2.66539e-08, Final residual = 3.20902e-22, No Iterations 11
[0] Bidomain phiE solve debug: proc=0 completed solve, outerIter=1
[3] Bidomain phiE solve debug: proc=3 completed solve, outerIter=1
[1] Bidomain phiE solve debug: proc=1 completed solve, outerIter=1
[5] Bidomain phiE solve debug: proc=5 completed solve, outerIter=1
[2] Bidomain phiE solve debug: proc=2 completed solve, outerIter=1
[4] Bidomain phiE solve debug: proc=4 completed solve, outerIter=1
DICPCG:  Solving for Vm, Initial residual = 0.000550131, Final residual = 4.96648e-18, No Iterations 4
PIMPLE: iteration 2
[3] Bidomain phiE solve debug: proc=3 entering solve, refCell=2 refValue=0 outerIter=2
[2] Bidomain phiE solve debug: proc=2 entering solve, refCell=-1 refValue=0 outerIter=2
[1] Bidomain phiE solve debug: proc=1 entering solve, refCell=-1 refValue=0 outerIter=2
[5] Bidomain phiE solve debug: proc=5 entering solve, refCell=-1 refValue=0 outerIter=2
[4] Bidomain phiE solve debug: proc=4 entering solve, refCell=-1 refValue=0 outerIter=2
[0] Bidomain phiE solve debug: proc=0 entering solve, refCell=-1 refValue=0 outerIter=2
DICPCG:  Solving for phiE, Initial residual = 0.000139529, Final residual = 1.98657e-18, No Iterations 11
[0] Bidomain phiE solve debug: proc=0 completed solve, outerIter=2
[5] Bidomain phiE solve debug: proc=5 completed solve, outerIter=2
[1] Bidomain phiE solve debug: proc=1 completed solve, outerIter=2
[3] Bidomain phiE solve debug: proc=3 completed solve, outerIter=2
[2] Bidomain phiE solve debug: proc=2 completed solve, outerIter=2
[4] Bidomain phiE solve debug: proc=4 completed solve, outerIter=2
DICPCG:  Solving for Vm, Initial residual = 1.04977e-07, Final residual = 3.65381e-19, No Iterations 3
ExecutionTime = 0 s  ClockTime = 0 s

Time = 0.0179372

DEBUG cell=0 t=0.0156951→0.0179372 step=0.00224215 V=-0.0790697 u1=1.46986 u2=0.797264 u3=0 Iion=0.0862401
DEBUG cell=0 t=0.0156951→0.0179372 step=0.0201793 V=-0.0790697 u1=1.47319 u2=0.795508 u3=0 Iion=0.0861636
[3] Bidomain phiE reference debug: proc=3 point=(0.125 0.05 0.05) refCell=2 ownsReference=1
[5] Bidomain phiE reference debug: proc=5 point=(0.125 0.05 0.05) refCell=-1 ownsReference=0
[1] Bidomain phiE reference debug: proc=1 point=(0.125 0.05 0.05) refCell=-1 ownsReference=0
[0] Bidomain phiE reference debug: proc=0 point=(0.125 0.05 0.05) refCell=-1 ownsReference=0
Bidomain phiE reference summary: ownerCount=1 ownerProc=3 point=(0.125 0.05 0.05)
PIMPLE: iteration 1
[2] Bidomain phiE reference debug: proc=2 point=(0.125 0.05 0.05) refCell=-1 ownsReference=0
[4] Bidomain phiE reference debug: proc=4 point=(0.125 0.05 0.05) refCell=-1 ownsReference=0
[3] Bidomain phiE solve debug: proc=3 entering solve, refCell=2 refValue=0 outerIter=1
[1] Bidomain phiE solve debug: proc=1 entering solve, refCell=-1 refValue=0 outerIter=1
[5] Bidomain phiE solve debug: proc=5 entering solve, refCell=-1 refValue=0 outerIter=1
[2] Bidomain phiE solve debug: proc=2 entering solve, refCell=-1 refValue=0 outerIter=1
[0] Bidomain phiE solve debug: proc=0 entering solve, refCell=-1 refValue=0 outerIter=1
[4] Bidomain phiE solve debug: proc=4 entering solve, refCell=-1 refValue=0 outerIter=1
DICPCG:  Solving for phiE, Initial residual = 2.65949e-08, Final residual = 3.96789e-22, No Iterations 11
[0] Bidomain phiE solve debug: proc=0 completed solve, outerIter=1
[3] Bidomain phiE solve debug: proc=3 completed solve, outerIter=1
[1] Bidomain phiE solve debug: proc=1 completed solve, outerIter=1
[5] Bidomain phiE solve debug: proc=5 completed solve, outerIter=1
[2] Bidomain phiE solve debug: proc=2 completed solve, outerIter=1
[4] Bidomain phiE solve debug: proc=4 completed solve, outerIter=1
DICPCG:  Solving for Vm, Initial residual = 0.000548915, Final residual = 4.95551e-18, No Iterations 4
PIMPLE: iteration 2
[3] Bidomain phiE solve debug: proc=3 entering solve, refCell=2 refValue=0 outerIter=2
[1] Bidomain phiE solve debug: proc=1 entering solve, refCell=-1 refValue=0 outerIter=2
[5] Bidomain phiE solve debug: proc=5 entering solve, refCell=-1 refValue=0 outerIter=2
[2] Bidomain phiE solve debug: proc=2 entering solve, refCell=-1 refValue=0 outerIter=2
[0] Bidomain phiE solve debug: proc=0 entering solve, refCell=-1 refValue=0 outerIter=2
[4] Bidomain phiE solve debug: proc=4 entering solve, refCell=-1 refValue=0 outerIter=2
DICPCG:  Solving for phiE, Initial residual = 0.000139221, Final residual = 1.0055e-18, No Iterations 11
[0] Bidomain phiE solve debug: proc=0 completed solve, outerIter=2
[1] Bidomain phiE solve debug: proc=1 completed solve, outerIter=2
[5] Bidomain phiE solve debug: proc=5 completed solve, outerIter=2
[3] Bidomain phiE solve debug: proc=3 completed solve, outerIter=2
[2] Bidomain phiE solve debug: proc=2 completed solve, outerIter=2
[4] Bidomain phiE solve debug: proc=4 completed solve, outerIter=2
DICPCG:  Solving for Vm, Initial residual = 1.04745e-07, Final residual = 3.64583e-19, No Iterations 3
ExecutionTime = 0 s  ClockTime = 0 s

Time = 0.0201793

[3] Bidomain phiE reference debug: proc=3 point=(0.125 0.05 0.05) refCell=2 ownsReference=1
DEBUG cell=0 t=0.0179372→0.0201793 step=0.00224215 V=-0.0791566 u1=1.47319 u2=0.795508 u3=0 Iion=0.0861636
DEBUG cell=0 t=0.0179372→0.0201793 step=0.0201793 V=-0.0791566 u1=1.47653 u2=0.793759 u3=0 Iion=0.0860873
[5] Bidomain phiE reference debug: proc=5 point=(0.125 0.05 0.05) refCell=-1 ownsReference=0
[1] Bidomain phiE reference debug: proc=1 point=(0.125 0.05 0.05) refCell=-1 ownsReference=0
[0] Bidomain phiE reference debug: proc=0 point=(0.125 0.05 0.05) refCell=-1 ownsReference=0
[4] Bidomain phiE reference debug: proc=4 point=(0.125 0.05 0.05) refCell=-1 ownsReference=0
[2] Bidomain phiE reference debug: proc=2 point=(0.125 0.05 0.05) refCell=-1 ownsReference=0
Bidomain phiE reference summary: ownerCount=1 ownerProc=3 point=(0.125 0.05 0.05)
PIMPLE: iteration 1
[3] Bidomain phiE solve debug: proc=3 entering solve, refCell=2 refValue=0 outerIter=1
[1] Bidomain phiE solve debug: proc=1 entering solve, refCell=-1 refValue=0 outerIter=1
[5] Bidomain phiE solve debug: proc=5 entering solve, refCell=-1 refValue=0 outerIter=1
[2] Bidomain phiE solve debug: proc=2 entering solve, refCell=-1 refValue=0 outerIter=1
[4] Bidomain phiE solve debug: proc=4 entering solve, refCell=-1 refValue=0 outerIter=1
[0] Bidomain phiE solve debug: proc=0 entering solve, refCell=-1 refValue=0 outerIter=1
DICPCG:  Solving for phiE, Initial residual = 2.65362e-08, Final residual = 4.06529e-22, No Iterations 11
[0] Bidomain phiE solve debug: proc=0 completed solve, outerIter=1
[3] Bidomain phiE solve debug: proc=3 completed solve, outerIter=1
[5] Bidomain phiE solve debug: proc=5 completed solve, outerIter=1
[1] Bidomain phiE solve debug: proc=1 completed solve, outerIter=1
[2] Bidomain phiE solve debug: proc=2 completed solve, outerIter=1
[4] Bidomain phiE solve debug: proc=4 completed solve, outerIter=1
DICPCG:  Solving for Vm, Initial residual = 0.000547705, Final residual = 4.94459e-18, No Iterations 4
PIMPLE: iteration 2
[2] Bidomain phiE solve debug: proc=2 entering solve, refCell=-1 refValue=0 outerIter=2
[1] Bidomain phiE solve debug: proc=1 entering solve, refCell=-1 refValue=0 outerIter=2
[0] Bidomain phiE solve debug: proc=0 entering solve, refCell=-1 refValue=0 outerIter=2
[3] Bidomain phiE solve debug: proc=3 entering solve, refCell=2 refValue=0 outerIter=2
[4] Bidomain phiE solve debug: proc=4 entering solve, refCell=-1 refValue=0 outerIter=2
[5] Bidomain phiE solve debug: proc=5 entering solve, refCell=-1 refValue=0 outerIter=2
DICPCG:  Solving for phiE, Initial residual = 0.000138914, Final residual = 1.3811e-18, No Iterations 11
[3] Bidomain phiE solve debug: proc=3 completed solve, outerIter=2
[1] Bidomain phiE solve debug: proc=1 completed solve, outerIter=2
[5] Bidomain phiE solve debug: proc=5 completed solve, outerIter=2
[2] Bidomain phiE solve debug: proc=2 completed solve, outerIter=2
[4] Bidomain phiE solve debug: proc=4 completed solve, outerIter=2
[0] Bidomain phiE solve debug: proc=0 completed solve, outerIter=2
DICPCG:  Solving for Vm, Initial residual = 1.04514e-07, Final residual = 3.63789e-19, No Iterations 3
ExecutionTime = 0 s  ClockTime = 0 s

Time = 0.0224215

[3] Bidomain phiE reference debug: proc=3 point=(0.125 0.05 0.05) refCell=2 ownsReference=1
DEBUG cell=0 t=0.0201793→0.0224215 step=0.00224215 V=-0.0792433 u1=1.47653 u2=0.793759 u3=0 Iion=0.0860873
DEBUG cell=0 t=0.0201793→0.0224215 step=0.0201793 V=-0.0792433 u1=1.47986 u2=0.792019 u3=0 Iion=0.0860113
[5] Bidomain phiE reference debug: proc=5 point=(0.125 0.05 0.05) refCell=-1 ownsReference=0
[1] Bidomain phiE reference debug: proc=1 point=(0.125 0.05 0.05) refCell=-1 ownsReference=0
[2] Bidomain phiE reference debug: proc=2 point=(0.125 0.05 0.05) refCell=-1 ownsReference=0
[4] Bidomain phiE reference debug: proc=4 point=(0.125 0.05 0.05) refCell=-1 ownsReference=0
[0] Bidomain phiE reference debug: proc=0 point=(0.125 0.05 0.05) refCell=-1 ownsReference=0
Bidomain phiE reference summary: ownerCount=1 ownerProc=3 point=(0.125 0.05 0.05)
PIMPLE: iteration 1
[1] Bidomain phiE solve debug: proc=1 entering solve, refCell=-1 refValue=0 outerIter=1
[3] Bidomain phiE solve debug: proc=3 entering solve, refCell=2 refValue=0 outerIter=1
[0] Bidomain phiE solve debug: proc=0 entering solve, refCell=-1 refValue=0 outerIter=1
[4] Bidomain phiE solve debug: proc=4 entering solve, refCell=-1 refValue=0 outerIter=1
[2] Bidomain phiE solve debug: proc=2 entering solve, refCell=-1 refValue=0 outerIter=1
[5] Bidomain phiE solve debug: proc=5 entering solve, refCell=-1 refValue=0 outerIter=1
DICPCG:  Solving for phiE, Initial residual = 2.64778e-08, Final residual = 2.36079e-22, No Iterations 11
[0] Bidomain phiE solve debug: proc=0 completed solve, outerIter=1
[1] Bidomain phiE solve debug: proc=1 completed solve, outerIter=1
[5] Bidomain phiE solve debug: proc=5 completed solve, outerIter=1
[3] Bidomain phiE solve debug: proc=3 completed solve, outerIter=1
[2] Bidomain phiE solve debug: proc=2 completed solve, outerIter=1
[4] Bidomain phiE solve debug: proc=4 completed solve, outerIter=1
DICPCG:  Solving for Vm, Initial residual = 0.000546501, Final residual = 4.93371e-18, No Iterations 4
PIMPLE: iteration 2
[3] Bidomain phiE solve debug: proc=3 entering solve, refCell=2 refValue=0 outerIter=2
[1] Bidomain phiE solve debug: proc=1 entering solve, refCell=-1 refValue=0 outerIter=2
[2] Bidomain phiE solve debug: proc=2 entering solve, refCell=-1 refValue=0 outerIter=2
[0] Bidomain phiE solve debug: proc=0 entering solve, refCell=-1 refValue=0 outerIter=2
[4] Bidomain phiE solve debug: proc=4 entering solve, refCell=-1 refValue=0 outerIter=2
[5] Bidomain phiE solve debug: proc=5 entering solve, refCell=-1 refValue=0 outerIter=2
DICPCG:  Solving for phiE, Initial residual = 0.000138608, Final residual = 1.50896e-18, No Iterations 11
[0] Bidomain phiE solve debug: proc=0 completed solve, outerIter=2
[3] Bidomain phiE solve debug: proc=3 completed solve, outerIter=2
[1] Bidomain phiE solve debug: proc=1 completed solve, outerIter=2
[5] Bidomain phiE solve debug: proc=5 completed solve, outerIter=2
[2] Bidomain phiE solve debug: proc=2 completed solve, outerIter=2
[4] Bidomain phiE solve debug: proc=4 completed solve, outerIter=2
DICPCG:  Solving for Vm, Initial residual = 1.04284e-07, Final residual = 3.62998e-19, No Iterations 3
ExecutionTime = 0 s  ClockTime = 0 s

Time = 0.0246636

DEBUG cell=0 t=0.0224215→0.0246636 step=0.00224215 V=-0.07933 u1=1.47986 u2=0.792019 u3=0 Iion=0.0860113
[3] Bidomain phiE reference debug: proc=3 point=(0.125 0.05 0.05) refCell=2 ownsReference=1
[5] Bidomain phiE reference debug: proc=5 point=(0.125 0.05 0.05) refCell=-1 ownsReference=0
[1] Bidomain phiE reference debug: proc=1 point=(0.125 0.05 0.05) refCell=-1 ownsReference=0
DEBUG cell=0 t=0.0224215→0.0246636 step=0.0201793 V=-0.07933 u1=1.48319 u2=0.790286 u3=0 Iion=0.0859356
[0] Bidomain phiE reference debug: proc=0 point=(0.125 0.05 0.05) refCell=-1 ownsReference=0
[4] Bidomain phiE reference debug: proc=4 point=(0.125 0.05 0.05) refCell=-1 ownsReference=0
[2] Bidomain phiE reference debug: proc=2 point=(0.125 0.05 0.05) refCell=-1 ownsReference=0
Bidomain phiE reference summary: ownerCount=1 ownerProc=3 point=(0.125 0.05 0.05)
PIMPLE: iteration 1
[3] Bidomain phiE solve debug: proc=3 entering solve, refCell=2 refValue=0 outerIter=1
[1] Bidomain phiE solve debug: proc=1 entering solve, refCell=-1 refValue=0 outerIter=1
[2] Bidomain phiE solve debug: proc=2 entering solve, refCell=-1 refValue=0 outerIter=1
[5] Bidomain phiE solve debug: proc=5 entering solve, refCell=-1 refValue=0 outerIter=1
[4] Bidomain phiE solve debug: proc=4 entering solve, refCell=-1 refValue=0 outerIter=1
[0] Bidomain phiE solve debug: proc=0 entering solve, refCell=-1 refValue=0 outerIter=1
DICPCG:  Solving for phiE, Initial residual = 2.64196e-08, Final residual = 2.98033e-22, No Iterations 11
[0] Bidomain phiE solve debug: proc=0 completed solve, outerIter=1
[3] Bidomain phiE solve debug: proc=3 completed solve, outerIter=1
[1] Bidomain phiE solve debug: proc=1 completed solve, outerIter=1
[5] Bidomain phiE solve debug: proc=5 completed solve, outerIter=1
[2] Bidomain phiE solve debug: proc=2 completed solve, outerIter=1
[4] Bidomain phiE solve debug: proc=4 completed solve, outerIter=1
DICPCG:  Solving for Vm, Initial residual = 0.000545301, Final residual = 4.92288e-18, No Iterations 4
PIMPLE: iteration 2
[1] Bidomain phiE solve debug: proc=1 entering solve, refCell=-1 refValue=0 outerIter=2
[2] Bidomain phiE solve debug: proc=2 entering solve, refCell=-1 refValue=0 outerIter=2
[3] Bidomain phiE solve debug: proc=3 entering solve, refCell=2 refValue=0 outerIter=2
[0] Bidomain phiE solve debug: proc=0 entering solve, refCell=-1 refValue=0 outerIter=2
[4] Bidomain phiE solve debug: proc=4 entering solve, refCell=-1 refValue=0 outerIter=2
[5] Bidomain phiE solve debug: proc=5 entering solve, refCell=-1 refValue=0 outerIter=2
DICPCG:  Solving for phiE, Initial residual = 0.000138304, Final residual = 9.06328e-19, No Iterations 11
[0] Bidomain phiE solve debug: proc=0 completed solve, outerIter=2
[3] Bidomain phiE solve debug: proc=3 completed solve, outerIter=2
[1] Bidomain phiE solve debug: proc=1 completed solve, outerIter=2
[5] Bidomain phiE solve debug: proc=5 completed solve, outerIter=2
[2] Bidomain phiE solve debug: proc=2 completed solve, outerIter=2
[4] Bidomain phiE solve debug: proc=4 completed solve, outerIter=2
DICPCG:  Solving for Vm, Initial residual = 1.04056e-07, Final residual = 3.62211e-19, No Iterations 3
ExecutionTime = 0 s  ClockTime = 0 s

Time = 0.0269058

DEBUG cell=0 t=0.0246636→0.0269058 step=0.00224215 V=-0.0794165 u1=1.48319 u2=0.790286 u3=0 Iion=0.0859356
[3] Bidomain phiE reference debug: proc=3 point=(0.125 0.05 0.05) refCell=2 ownsReference=1
DEBUG cell=0 t=0.0246636→0.0269058 step=0.0201793 V=-0.0794165 u1=1.48652 u2=0.78856 u3=0 Iion=0.0858602
[0] Bidomain phiE reference debug: proc=0 point=(0.125 0.05 0.05) refCell=-1 ownsReference=0
[1] Bidomain phiE reference debug: proc=1 point=(0.125 0.05 0.05) refCell=-1 ownsReference=0
[5] Bidomain phiE reference debug: proc=5 point=(0.125 0.05 0.05) refCell=-1 ownsReference=0
[4] Bidomain phiE reference debug: proc=4 point=(0.125 0.05 0.05) refCell=-1 ownsReference=0
[2] Bidomain phiE reference debug: proc=2 point=(0.125 0.05 0.05) refCell=-1 ownsReference=0
Bidomain phiE reference summary: ownerCount=1 ownerProc=3 point=(0.125 0.05 0.05)
PIMPLE: iteration 1
[1] Bidomain phiE solve debug: proc=1 entering solve, refCell=-1 refValue=0 outerIter=1
[0] Bidomain phiE solve debug: proc=0 entering solve, refCell=-1 refValue=0 outerIter=1
[3] Bidomain phiE solve debug: proc=3 entering solve, refCell=2 refValue=0 outerIter=1
[5] Bidomain phiE solve debug: proc=5 entering solve, refCell=-1 refValue=0 outerIter=1
[4] Bidomain phiE solve debug: proc=4 entering solve, refCell=-1 refValue=0 outerIter=1
[2] Bidomain phiE solve debug: proc=2 entering solve, refCell=-1 refValue=0 outerIter=1
DICPCG:  Solving for phiE, Initial residual = 2.63616e-08, Final residual = 3.32893e-22, No Iterations 11
[0] Bidomain phiE solve debug: proc=0 completed solve, outerIter=1
[3] Bidomain phiE solve debug: proc=3 completed solve, outerIter=1
[5] Bidomain phiE solve debug: proc=5 completed solve, outerIter=1
[1] Bidomain phiE solve debug: proc=1 completed solve, outerIter=1
[2] Bidomain phiE solve debug: proc=2 completed solve, outerIter=1
[4] Bidomain phiE solve debug: proc=4 completed solve, outerIter=1
DICPCG:  Solving for Vm, Initial residual = 0.000544107, Final residual = 4.9121e-18, No Iterations 4
PIMPLE: iteration 2
[3] Bidomain phiE solve debug: proc=3 entering solve, refCell=2 refValue=0 outerIter=2
[5] Bidomain phiE solve debug: proc=5 entering solve, refCell=-1 refValue=0 outerIter=2
[1] Bidomain phiE solve debug: proc=1 entering solve, refCell=-1 refValue=0 outerIter=2
[0] Bidomain phiE solve debug: proc=0 entering solve, refCell=-1 refValue=0 outerIter=2
[4] Bidomain phiE solve debug: proc=4 entering solve, refCell=-1 refValue=0 outerIter=2
[2] Bidomain phiE solve debug: proc=2 entering solve, refCell=-1 refValue=0 outerIter=2
DICPCG:  Solving for phiE, Initial residual = 0.000138001, Final residual = 2.12295e-18, No Iterations 11
[0] Bidomain phiE solve debug: proc=0 completed solve, outerIter=2
[3] Bidomain phiE solve debug: proc=3 completed solve, outerIter=2
[1] Bidomain phiE solve debug: proc=1 completed solve, outerIter=2
[5] Bidomain phiE solve debug: proc=5 completed solve, outerIter=2
[2] Bidomain phiE solve debug: proc=2 completed solve, outerIter=2
[4] Bidomain phiE solve debug: proc=4 completed solve, outerIter=2
DICPCG:  Solving for Vm, Initial residual = 1.03828e-07, Final residual = 3.61426e-19, No Iterations 3
ExecutionTime = 0 s  ClockTime = 0 s

Time = 0.0291479

DEBUG cell=0 t=0.0269058→0.0291479 step=0.00224215 V=-0.079503 u1=1.48652 u2=0.78856 u3=0 Iion=0.0858602
DEBUG cell=0 t=0.0269058→0.0291479 step=0.0201793 V=-0.079503 u1=1.48985 u2=0.786842 u3=0 Iion=0.085785
[0] Bidomain phiE reference debug: proc=0 point=(0.125 0.05 0.05) refCell=-1 ownsReference=0
[3] Bidomain phiE reference debug: proc=3 point=(0.125 0.05 0.05) refCell=2 ownsReference=1
[5] Bidomain phiE reference debug: proc=5 point=(0.125 0.05 0.05) refCell=-1 ownsReference=0
[1] Bidomain phiE reference debug: proc=1 point=(0.125 0.05 0.05) refCell=-1 ownsReference=0
Bidomain phiE reference summary: ownerCount=1 ownerProc=3 point=(0.125 0.05 0.05)
[4] Bidomain phiE reference debug: proc=4 point=(0.125 0.05 0.05) refCell=-1 ownsReference=0
[2] Bidomain phiE reference debug: proc=2 point=(0.125 0.05 0.05) refCell=-1 ownsReference=0
PIMPLE: iteration 1
[3] Bidomain phiE solve debug: proc=3 entering solve, refCell=2 refValue=0 outerIter=1
[1] Bidomain phiE solve debug: proc=1 entering solve, refCell=-1 refValue=0 outerIter=1
[5] Bidomain phiE solve debug: proc=5 entering solve, refCell=-1 refValue=0 outerIter=1
[2] Bidomain phiE solve debug: proc=2 entering solve, refCell=-1 refValue=0 outerIter=1
[0] Bidomain phiE solve debug: proc=0 entering solve, refCell=-1 refValue=0 outerIter=1
[4] Bidomain phiE solve debug: proc=4 entering solve, refCell=-1 refValue=0 outerIter=1
DICPCG:  Solving for phiE, Initial residual = 2.63039e-08, Final residual = 2.47149e-22, No Iterations 11
[0] Bidomain phiE solve debug: proc=0 completed solve, outerIter=1
[5] Bidomain phiE solve debug: proc=5 completed solve, outerIter=1
[1] Bidomain phiE solve debug: proc=1 completed solve, outerIter=1
[3] Bidomain phiE solve debug: proc=3 completed solve, outerIter=1
[2] Bidomain phiE solve debug: proc=2 completed solve, outerIter=1
[4] Bidomain phiE solve debug: proc=4 completed solve, outerIter=1
DICPCG:  Solving for Vm, Initial residual = 0.000542918, Final residual = 4.90137e-18, No Iterations 4
PIMPLE: iteration 2
[1] Bidomain phiE solve debug: proc=1 entering solve, refCell=-1 refValue=0 outerIter=2
[3] Bidomain phiE solve debug: proc=3 entering solve, refCell=2 refValue=0 outerIter=2
[2] Bidomain phiE solve debug: proc=2 entering solve, refCell=-1 refValue=0 outerIter=2
[5] Bidomain phiE solve debug: proc=5 entering solve, refCell=-1 refValue=0 outerIter=2
[4] Bidomain phiE solve debug: proc=4 entering solve, refCell=-1 refValue=0 outerIter=2
[0] Bidomain phiE solve debug: proc=0 entering solve, refCell=-1 refValue=0 outerIter=2
DICPCG:  Solving for phiE, Initial residual = 0.000137699, Final residual = 1.7567e-18, No Iterations 11
[0] Bidomain phiE solve debug: proc=0 completed solve, outerIter=2
[1] Bidomain phiE solve debug: proc=1 completed solve, outerIter=2
[5] Bidomain phiE solve debug: proc=5 completed solve, outerIter=2
[3] Bidomain phiE solve debug: proc=3 completed solve, outerIter=2
[2] Bidomain phiE solve debug: proc=2 completed solve, outerIter=2
[4] Bidomain phiE solve debug: proc=4 completed solve, outerIter=2
DICPCG:  Solving for Vm, Initial residual = 1.03601e-07, Final residual = 3.60645e-19, No Iterations 3
ExecutionTime = 0 s  ClockTime = 0 s

Time = 0.0313901

DEBUG cell=0 t=0.0291479→0.0313901 step=0.00224215 V=-0.0795894 u1=1.48985 u2=0.786842 u3=0 Iion=0.085785
[3] Bidomain phiE reference debug: proc=3 point=(0.125 0.05 0.05) refCell=2 ownsReference=1
DEBUG cell=0 t=0.0291479→0.0313901 step=0.0201793 V=-0.0795894 u1=1.49319 u2=0.785132 u3=0 Iion=0.0857101
[1] Bidomain phiE reference debug: proc=1 point=(0.125 0.05 0.05) refCell=-1 ownsReference=0
[5] Bidomain phiE reference debug: proc=5 point=(0.125 0.05 0.05) refCell=-1 ownsReference=0
[0] Bidomain phiE reference debug: proc=0 point=(0.125 0.05 0.05) refCell=-1 ownsReference=0
[2] Bidomain phiE reference debug: proc=2 point=(0.125 0.05 0.05) refCell=-1 ownsReference=0
[4] Bidomain phiE reference debug: proc=4 point=(0.125 0.05 0.05) refCell=-1 ownsReference=0
Bidomain phiE reference summary: ownerCount=1 ownerProc=3 point=(0.125 0.05 0.05)
PIMPLE: iteration 1
[3] Bidomain phiE solve debug: proc=3 entering solve, refCell=2 refValue=0 outerIter=1
[1] Bidomain phiE solve debug: proc=1 entering solve, refCell=-1 refValue=0 outerIter=1
[5] Bidomain phiE solve debug: proc=5 entering solve, refCell=-1 refValue=0 outerIter=1
[2] Bidomain phiE solve debug: proc=2 entering solve, refCell=-1 refValue=0 outerIter=1
[0] Bidomain phiE solve debug: proc=0 entering solve, refCell=-1 refValue=0 outerIter=1
[4] Bidomain phiE solve debug: proc=4 entering solve, refCell=-1 refValue=0 outerIter=1
DICPCG:  Solving for phiE, Initial residual = 2.62465e-08, Final residual = 3.40782e-22, No Iterations 11
[0] Bidomain phiE solve debug: proc=0 completed solve, outerIter=1
[5] Bidomain phiE solve debug: proc=5 completed solve, outerIter=1
[3] Bidomain phiE solve debug: proc=3 completed solve, outerIter=1
[1] Bidomain phiE solve debug: proc=1 completed solve, outerIter=1
[4] Bidomain phiE solve debug: proc=4 completed solve, outerIter=1
[2] Bidomain phiE solve debug: proc=2 completed solve, outerIter=1
DICPCG:  Solving for Vm, Initial residual = 0.000541734, Final residual = 4.89068e-18, No Iterations 4
PIMPLE: iteration 2
[1] Bidomain phiE solve debug: proc=1 entering solve, refCell=-1 refValue=0 outerIter=2
[2] Bidomain phiE solve debug: proc=2 entering solve, refCell=-1 refValue=0 outerIter=2
[5] Bidomain phiE solve debug: proc=5 entering solve, refCell=-1 refValue=0 outerIter=2
[4] Bidomain phiE solve debug: proc=4 entering solve, refCell=-1 refValue=0 outerIter=2
[0] Bidomain phiE solve debug: proc=0 entering solve, refCell=-1 refValue=0 outerIter=2
[3] Bidomain phiE solve debug: proc=3 entering solve, refCell=2 refValue=0 outerIter=2
DICPCG:  Solving for phiE, Initial residual = 0.000137399, Final residual = 1.41929e-18, No Iterations 11
[0] Bidomain phiE solve debug: proc=0 completed solve, outerIter=2
[5] Bidomain phiE solve debug: proc=5 completed solve, outerIter=2
[1] Bidomain phiE solve debug: proc=1 completed solve, outerIter=2
[3] Bidomain phiE solve debug: proc=3 completed solve, outerIter=2
[4] Bidomain phiE solve debug: proc=4 completed solve, outerIter=2
[2] Bidomain phiE solve debug: proc=2 completed solve, outerIter=2
DICPCG:  Solving for Vm, Initial residual = 1.03375e-07, Final residual = 3.59867e-19, No Iterations 3
ExecutionTime = 0 s  ClockTime = 0 s

Time = 0.0336322

DEBUG cell=0 t=0.0313901→0.0336322 step=0.00224215 V=-0.0796756 u1=1.49319 u2=0.785132 u3=0 Iion=0.0857101
DEBUG cell=0 t=0.0313901→0.0336322 step=0.0201793 V=-0.0796756 u1=1.49652 u2=0.783429 u3=0 Iion=0.0856354
[3] Bidomain phiE reference debug: proc=3 point=(0.125 0.05 0.05) refCell=2 ownsReference=1
[5] Bidomain phiE reference debug: proc=5 point=(0.125 0.05 0.05) refCell=-1 ownsReference=0
[1] Bidomain phiE reference debug: proc=1 point=(0.125 0.05 0.05) refCell=-1 ownsReference=0
[2] Bidomain phiE reference debug: proc=2 point=(0.125 0.05 0.05) refCell=-1 ownsReference=0
[4] Bidomain phiE reference debug: proc=4 point=(0.125 0.05 0.05) refCell=-1 ownsReference=0
[0] Bidomain phiE reference debug: proc=0 point=(0.125 0.05 0.05) refCell=-1 ownsReference=0
Bidomain phiE reference summary: ownerCount=1 ownerProc=3 point=(0.125 0.05 0.05)
PIMPLE: iteration 1
[1] Bidomain phiE solve debug: proc=1 entering solve, refCell=-1 refValue=0 outerIter=1
[3] Bidomain phiE solve debug: proc=3 entering solve, refCell=2 refValue=0 outerIter=1
[5] Bidomain phiE solve debug: proc=5 entering solve, refCell=-1 refValue=0 outerIter=1
[4] Bidomain phiE solve debug: proc=4 entering solve, refCell=-1 refValue=0 outerIter=1
[2] Bidomain phiE solve debug: proc=2 entering solve, refCell=-1 refValue=0 outerIter=1
[0] Bidomain phiE solve debug: proc=0 entering solve, refCell=-1 refValue=0 outerIter=1
DICPCG:  Solving for phiE, Initial residual = 2.61893e-08, Final residual = 2.44411e-22, No Iterations 11
[0] Bidomain phiE solve debug: proc=0 completed solve, outerIter=1
[1] Bidomain phiE solve debug: proc=1 completed solve, outerIter=1
[5] Bidomain phiE solve debug: proc=5 completed solve, outerIter=1
[3] Bidomain phiE solve debug: proc=3 completed solve, outerIter=1
[2] Bidomain phiE solve debug: proc=2 completed solve, outerIter=1
[4] Bidomain phiE solve debug: proc=4 completed solve, outerIter=1
DICPCG:  Solving for Vm, Initial residual = 0.000540555, Final residual = 4.88004e-18, No Iterations 4
PIMPLE: iteration 2
[3] Bidomain phiE solve debug: proc=3 entering solve, refCell=2 refValue=0 outerIter=2
[1] Bidomain phiE solve debug: proc=1 entering solve, refCell=-1 refValue=0 outerIter=2
[4] Bidomain phiE solve debug: proc=4 entering solve, refCell=-1 refValue=0 outerIter=2
[2] Bidomain phiE solve debug: proc=2 entering solve, refCell=-1 refValue=0 outerIter=2
[5] Bidomain phiE solve debug: proc=5 entering solve, refCell=-1 refValue=0 outerIter=2
[0] Bidomain phiE solve debug: proc=0 entering solve, refCell=-1 refValue=0 outerIter=2
DICPCG:  Solving for phiE, Initial residual = 0.000137099, Final residual = 1.37067e-18, No Iterations 11
[0] Bidomain phiE solve debug: proc=0 completed solve, outerIter=2
[3] Bidomain phiE solve debug: proc=3 completed solve, outerIter=2
[5] Bidomain phiE solve debug: proc=5 completed solve, outerIter=2
[1] Bidomain phiE solve debug: proc=1 completed solve, outerIter=2
[2] Bidomain phiE solve debug: proc=2 completed solve, outerIter=2
[4] Bidomain phiE solve debug: proc=4 completed solve, outerIter=2
DICPCG:  Solving for Vm, Initial residual = 1.03151e-07, Final residual = 3.59093e-19, No Iterations 3
ExecutionTime = 0 s  ClockTime = 0 s

Time = 0.0358744

DEBUG cell=0 t=0.0336322→0.0358744 step=0.00224215 V=-0.0797618 u1=1.49652 u2=0.783429 u3=0 Iion=0.0856354
[3] Bidomain phiE reference debug: proc=3 point=(0.125 0.05 0.05) refCell=2 ownsReference=1
DEBUG cell=0 t=0.0336322→0.0358744 step=0.0201793 V=-0.0797618 u1=1.49985 u2=0.781733 u3=0 Iion=0.085561
[0] Bidomain phiE reference debug: proc=0 point=(0.125 0.05 0.05) refCell=-1 ownsReference=0
[1] Bidomain phiE reference debug: proc=1 point=(0.125 0.05 0.05) refCell=-1 ownsReference=0
[5] Bidomain phiE reference debug: proc=5 point=(0.125 0.05 0.05) refCell=-1 ownsReference=0
[2] Bidomain phiE reference debug: proc=2 point=(0.125 0.05 0.05) refCell=-1 ownsReference=0
[4] Bidomain phiE reference debug: proc=4 point=(0.125 0.05 0.05) refCell=-1 ownsReference=0
Bidomain phiE reference summary: ownerCount=1 ownerProc=3 point=(0.125 0.05 0.05)
PIMPLE: iteration 1
[3] Bidomain phiE solve debug: proc=3 entering solve, refCell=2 refValue=0 outerIter=1
[1] Bidomain phiE solve debug: proc=1 entering solve, refCell=-1 refValue=0 outerIter=1
[2] Bidomain phiE solve debug: proc=2 entering solve, refCell=-1 refValue=0 outerIter=1
[5] Bidomain phiE solve debug: proc=5 entering solve, refCell=-1 refValue=0 outerIter=1
[4] Bidomain phiE solve debug: proc=4 entering solve, refCell=-1 refValue=0 outerIter=1
[0] Bidomain phiE solve debug: proc=0 entering solve, refCell=-1 refValue=0 outerIter=1
DICPCG:  Solving for phiE, Initial residual = 2.61324e-08, Final residual = 5.64935e-22, No Iterations 11
[0] Bidomain phiE solve debug: proc=0 completed solve, outerIter=1
[5] Bidomain phiE solve debug: proc=5 completed solve, outerIter=1
[3] Bidomain phiE solve debug: proc=3 completed solve, outerIter=1
[1] Bidomain phiE solve debug: proc=1 completed solve, outerIter=1
[2] Bidomain phiE solve debug: proc=2 completed solve, outerIter=1
[4] Bidomain phiE solve debug: proc=4 completed solve, outerIter=1
DICPCG:  Solving for Vm, Initial residual = 0.000539381, Final residual = 4.86944e-18, No Iterations 4
PIMPLE: iteration 2
[3] Bidomain phiE solve debug: proc=3 entering solve, refCell=2 refValue=0 outerIter=2
[2] Bidomain phiE solve debug: proc=2 entering solve, refCell=-1 refValue=0 outerIter=2
[5] Bidomain phiE solve debug: proc=5 entering solve, refCell=-1 refValue=0 outerIter=2
[4] Bidomain phiE solve debug: proc=4 entering solve, refCell=-1 refValue=0 outerIter=2
[1] Bidomain phiE solve debug: proc=1 entering solve, refCell=-1 refValue=0 outerIter=2
[0] Bidomain phiE solve debug: proc=0 entering solve, refCell=-1 refValue=0 outerIter=2
DICPCG:  Solving for phiE, Initial residual = 0.000136802, Final residual = 2.01304e-18, No Iterations 11
[0] Bidomain phiE solve debug: proc=0 completed solve, outerIter=2
[1] Bidomain phiE solve debug: proc=1 completed solve, outerIter=2
[5] Bidomain phiE solve debug: proc=5 completed solve, outerIter=2
[3] Bidomain phiE solve debug: proc=3 completed solve, outerIter=2
[2] Bidomain phiE solve debug: proc=2 completed solve, outerIter=2
[4] Bidomain phiE solve debug: proc=4 completed solve, outerIter=2
DICPCG:  Solving for Vm, Initial residual = 1.02927e-07, Final residual = 3.58322e-19, No Iterations 3
ExecutionTime = 0 s  ClockTime = 0 s

Time = 0.0381165

[3] Bidomain phiE reference debug: proc=3 point=(0.125 0.05 0.05) refCell=2 ownsReference=1
DEBUG cell=0 t=0.0358744→0.0381165 step=0.00224215 V=-0.0798479 u1=1.49985 u2=0.781733 u3=0 Iion=0.085561
DEBUG cell=0 t=0.0358744→0.0381165 step=0.0201793 V=-0.0798479 u1=1.50318 u2=0.780045 u3=0 Iion=0.0854869
[5] Bidomain phiE reference debug: proc=5 point=(0.125 0.05 0.05) refCell=-1 ownsReference=0
[1] Bidomain phiE reference debug: proc=1 point=(0.125 0.05 0.05) refCell=-1 ownsReference=0
[2] Bidomain phiE reference debug: proc=2 point=(0.125 0.05 0.05) refCell=-1 ownsReference=0
[0] Bidomain phiE reference debug: proc=0 point=(0.125 0.05 0.05) refCell=-1 ownsReference=0
[4] Bidomain phiE reference debug: proc=4 point=(0.125 0.05 0.05) refCell=-1 ownsReference=0
Bidomain phiE reference summary: ownerCount=1 ownerProc=3 point=(0.125 0.05 0.05)
PIMPLE: iteration 1
[3] Bidomain phiE solve debug: proc=3 entering solve, refCell=2 refValue=0 outerIter=1
[5] Bidomain phiE solve debug: proc=5 entering solve, refCell=-1 refValue=0 outerIter=1
[1] Bidomain phiE solve debug: proc=1 entering solve, refCell=-1 refValue=0 outerIter=1
[2] Bidomain phiE solve debug: proc=2 entering solve, refCell=-1 refValue=0 outerIter=1
[4] Bidomain phiE solve debug: proc=4 entering solve, refCell=-1 refValue=0 outerIter=1
[0] Bidomain phiE solve debug: proc=0 entering solve, refCell=-1 refValue=0 outerIter=1
DICPCG:  Solving for phiE, Initial residual = 2.60757e-08, Final residual = 3.38593e-22, No Iterations 11
[0] Bidomain phiE solve debug: proc=0 completed solve, outerIter=1
[5] Bidomain phiE solve debug: proc=5 completed solve, outerIter=1
[1] Bidomain phiE solve debug: proc=1 completed solve, outerIter=1
[2] Bidomain phiE solve debug: proc=2 completed solve, outerIter=1
[4] Bidomain phiE solve debug: proc=4 completed solve, outerIter=1
[3] Bidomain phiE solve debug: proc=3 completed solve, outerIter=1
DICPCG:  Solving for Vm, Initial residual = 0.000538213, Final residual = 4.85889e-18, No Iterations 4
PIMPLE: iteration 2
[3] Bidomain phiE solve debug: proc=3 entering solve, refCell=2 refValue=0 outerIter=2
[1] Bidomain phiE solve debug: proc=1 entering solve, refCell=-1 refValue=0 outerIter=2
[2] Bidomain phiE solve debug: proc=2 entering solve, refCell=-1 refValue=0 outerIter=2
[5] Bidomain phiE solve debug: proc=5 entering solve, refCell=-1 refValue=0 outerIter=2
[4] Bidomain phiE solve debug: proc=4 entering solve, refCell=-1 refValue=0 outerIter=2
[0] Bidomain phiE solve debug: proc=0 entering solve, refCell=-1 refValue=0 outerIter=2
DICPCG:  Solving for phiE, Initial residual = 0.000136505, Final residual = 1.38807e-18, No Iterations 11
[5] Bidomain phiE solve debug: proc=5 completed solve, outerIter=2
[1] Bidomain phiE solve debug: proc=1 completed solve, outerIter=2
[4] Bidomain phiE solve debug: proc=4 completed solve, outerIter=2
[2] Bidomain phiE solve debug: proc=2 completed solve, outerIter=2
[0] Bidomain phiE solve debug: proc=0 completed solve, outerIter=2
[3] Bidomain phiE solve debug: proc=3 completed solve, outerIter=2
DICPCG:  Solving for Vm, Initial residual = 1.02704e-07, Final residual = 3.57553e-19, No Iterations 3
ExecutionTime = 0 s  ClockTime = 0 s

Time = 0.0403587

[3] Bidomain phiE reference debug: proc=3 point=(0.125 0.05 0.05) refCell=2 ownsReference=1
DEBUG cell=0 t=0.0381165→0.0403587 step=0.00224215 V=-0.0799339 u1=1.50318 u2=0.780045 u3=0 Iion=0.0854869
DEBUG cell=0 t=0.0381165→0.0403587 step=0.0201793 V=-0.0799339 u1=1.50652 u2=0.778364 u3=0 Iion=0.085413
[5] Bidomain phiE reference debug: proc=5 point=(0.125 0.05 0.05) refCell=-1 ownsReference=0
[1] Bidomain phiE reference debug: proc=1 point=(0.125 0.05 0.05) refCell=-1 ownsReference=0
[0] Bidomain phiE reference debug: proc=0 point=(0.125 0.05 0.05) refCell=-1 ownsReference=0
Bidomain phiE reference summary: ownerCount=1 ownerProc=3 point=(0.125 0.05 0.05)
[2] Bidomain phiE reference debug: proc=2 point=(0.125 0.05 0.05) refCell=-1 ownsReference=0
[4] Bidomain phiE reference debug: proc=4 point=(0.125 0.05 0.05) refCell=-1 ownsReference=0
PIMPLE: iteration 1
[3] Bidomain phiE solve debug: proc=3 entering solve, refCell=2 refValue=0 outerIter=1
[1] Bidomain phiE solve debug: proc=1 entering solve, refCell=-1 refValue=0 outerIter=1
[2] Bidomain phiE solve debug: proc=2 entering solve, refCell=-1 refValue=0 outerIter=1
[5] Bidomain phiE solve debug: proc=5 entering solve, refCell=-1 refValue=0 outerIter=1
[0] Bidomain phiE solve debug: proc=0 entering solve, refCell=-1 refValue=0 outerIter=1
[4] Bidomain phiE solve debug: proc=4 entering solve, refCell=-1 refValue=0 outerIter=1
DICPCG:  Solving for phiE, Initial residual = 2.60192e-08, Final residual = 1.73865e-22, No Iterations 11
[0] Bidomain phiE solve debug: proc=0 completed solve, outerIter=1
[5] Bidomain phiE solve debug: proc=5 completed solve, outerIter=1
[1] Bidomain phiE solve debug: proc=1 completed solve, outerIter=1
[3] Bidomain phiE solve debug: proc=3 completed solve, outerIter=1
[2] Bidomain phiE solve debug: proc=2 completed solve, outerIter=1
[4] Bidomain phiE solve debug: proc=4 completed solve, outerIter=1
DICPCG:  Solving for Vm, Initial residual = 0.000537049, Final residual = 4.84839e-18, No Iterations 4
PIMPLE: iteration 2
[3] Bidomain phiE solve debug: proc=3 entering solve, refCell=2 refValue=0 outerIter=2
[1] Bidomain phiE solve debug: proc=1 entering solve, refCell=-1 refValue=0 outerIter=2
[4] Bidomain phiE solve debug: proc=4 entering solve, refCell=-1 refValue=0 outerIter=2
[5] Bidomain phiE solve debug: proc=5 entering solve, refCell=-1 refValue=0 outerIter=2
[2] Bidomain phiE solve debug: proc=2 entering solve, refCell=-1 refValue=0 outerIter=2
[0] Bidomain phiE solve debug: proc=0 entering solve, refCell=-1 refValue=0 outerIter=2
DICPCG:  Solving for phiE, Initial residual = 0.00013621, Final residual = 1.73507e-18, No Iterations 11
[0] Bidomain phiE solve debug: proc=0 completed solve, outerIter=2
[1] Bidomain phiE solve debug: proc=1 completed solve, outerIter=2
[5] Bidomain phiE solve debug: proc=5 completed solve, outerIter=2
[3] Bidomain phiE solve debug: proc=3 completed solve, outerIter=2
[2] Bidomain phiE solve debug: proc=2 completed solve, outerIter=2
[4] Bidomain phiE solve debug: proc=4 completed solve, outerIter=2
DICPCG:  Solving for Vm, Initial residual = 1.02482e-07, Final residual = 3.56788e-19, No Iterations 3
ExecutionTime = 0 s  ClockTime = 0 s

Time = 0.0426008

[3] Bidomain phiE reference debug: proc=3 point=(0.125 0.05 0.05) refCell=2 ownsReference=1
DEBUG cell=0 t=0.0403587→0.0426008 step=0.00224215 V=-0.0800198 u1=1.50652 u2=0.778364 u3=0 Iion=0.085413
DEBUG cell=0 t=0.0403587→0.0426008 step=0.0201793 V=-0.0800198 u1=1.50985 u2=0.77669 u3=0 Iion=0.0853394
[5] Bidomain phiE reference debug: proc=5 point=(0.125 0.05 0.05) refCell=-1 ownsReference=0
[1] Bidomain phiE reference debug: proc=1 point=(0.125 0.05 0.05) refCell=-1 ownsReference=0
[2] Bidomain phiE reference debug: proc=2 point=(0.125 0.05 0.05) refCell=-1 ownsReference=0
[4] Bidomain phiE reference debug: proc=4 point=(0.125 0.05 0.05) refCell=-1 ownsReference=0
[0] Bidomain phiE reference debug: proc=0 point=(0.125 0.05 0.05) refCell=-1 ownsReference=0
Bidomain phiE reference summary: ownerCount=1 ownerProc=3 point=(0.125 0.05 0.05)
PIMPLE: iteration 1
[3] Bidomain phiE solve debug: proc=3 entering solve, refCell=2 refValue=0 outerIter=1
[1] Bidomain phiE solve debug: proc=1 entering solve, refCell=-1 refValue=0 outerIter=1
[5] Bidomain phiE solve debug: proc=5 entering solve, refCell=-1 refValue=0 outerIter=1
[2] Bidomain phiE solve debug: proc=2 entering solve, refCell=-1 refValue=0 outerIter=1
[4] Bidomain phiE solve debug: proc=4 entering solve, refCell=-1 refValue=0 outerIter=1
[0] Bidomain phiE solve debug: proc=0 entering solve, refCell=-1 refValue=0 outerIter=1
DICPCG:  Solving for phiE, Initial residual = 2.5963e-08, Final residual = 3.3613e-22, No Iterations 11
[0] Bidomain phiE solve debug: proc=0 completed solve, outerIter=1
[3] Bidomain phiE solve debug: proc=3 completed solve, outerIter=1
[5] Bidomain phiE solve debug: proc=5 completed solve, outerIter=1
[1] Bidomain phiE solve debug: proc=1 completed solve, outerIter=1
[2] Bidomain phiE solve debug: proc=2 completed solve, outerIter=1
[4] Bidomain phiE solve debug: proc=4 completed solve, outerIter=1
DICPCG:  Solving for Vm, Initial residual = 0.000535891, Final residual = 4.83793e-18, No Iterations 4
PIMPLE: iteration 2
[1] Bidomain phiE solve debug: proc=1 entering solve, refCell=-1 refValue=0 outerIter=2
[3] Bidomain phiE solve debug: proc=3 entering solve, refCell=2 refValue=0 outerIter=2
[5] Bidomain phiE solve debug: proc=5 entering solve, refCell=-1 refValue=0 outerIter=2
[2] Bidomain phiE solve debug: proc=2 entering solve, refCell=-1 refValue=0 outerIter=2
[4] Bidomain phiE solve debug: proc=4 entering solve, refCell=-1 refValue=0 outerIter=2
[0] Bidomain phiE solve debug: proc=0 entering solve, refCell=-1 refValue=0 outerIter=2
DICPCG:  Solving for phiE, Initial residual = 0.000135916, Final residual = 1.79124e-18, No Iterations 11
[0] Bidomain phiE solve debug: proc=0 completed solve, outerIter=2
[1] Bidomain phiE solve debug: proc=1 completed solve, outerIter=2
[5] Bidomain phiE solve debug: proc=5 completed solve, outerIter=2
[3] Bidomain phiE solve debug: proc=3 completed solve, outerIter=2
[4] Bidomain phiE solve debug: proc=4 completed solve, outerIter=2
[2] Bidomain phiE solve debug: proc=2 completed solve, outerIter=2
DICPCG:  Solving for Vm, Initial residual = 1.02261e-07, Final residual = 3.56027e-19, No Iterations 3
ExecutionTime = 0 s  ClockTime = 0 s

Time = 0.044843

DEBUG cell=0 t=0.0426008→0.044843 step=0.00224215 V=-0.0801056 u1=1.50985 u2=0.77669 u3=0 Iion=0.0853394
DEBUG cell=0 t=0.0426008→0.044843 step=0.0201793 V=-0.0801056 u1=1.51318 u2=0.775023 u3=0 Iion=0.085266
[0] Bidomain phiE reference debug: proc=0 point=(0.125 0.05 0.05) refCell=-1 ownsReference=0
[3] Bidomain phiE reference debug: proc=3 point=(0.125 0.05 0.05) refCell=2 ownsReference=1
[5] Bidomain phiE reference debug: proc=5 point=(0.125 0.05 0.05) refCell=-1 ownsReference=0
[1] Bidomain phiE reference debug: proc=1 point=(0.125 0.05 0.05) refCell=-1 ownsReference=0
Bidomain phiE reference summary: ownerCount=1 ownerProc=3 point=(0.125 0.05 0.05)
[4] Bidomain phiE reference debug: proc=4 point=(0.125 0.05 0.05) refCell=-1 ownsReference=0
[2] Bidomain phiE reference debug: proc=2 point=(0.125 0.05 0.05) refCell=-1 ownsReference=0
PIMPLE: iteration 1
[3] Bidomain phiE solve debug: proc=3 entering solve, refCell=2 refValue=0 outerIter=1
[4] Bidomain phiE solve debug: proc=4 entering solve, refCell=-1 refValue=0 outerIter=1
[1] Bidomain phiE solve debug: proc=1 entering solve, refCell=-1 refValue=0 outerIter=1
[2] Bidomain phiE solve debug: proc=2 entering solve, refCell=-1 refValue=0 outerIter=1
[5] Bidomain phiE solve debug: proc=5 entering solve, refCell=-1 refValue=0 outerIter=1
[0] Bidomain phiE solve debug: proc=0 entering solve, refCell=-1 refValue=0 outerIter=1
DICPCG:  Solving for phiE, Initial residual = 2.5907e-08, Final residual = 2.18716e-22, No Iterations 11
[0] Bidomain phiE solve debug: proc=0 completed solve, outerIter=1
[3] Bidomain phiE solve debug: proc=3 completed solve, outerIter=1
[5] Bidomain phiE solve debug: proc=5 completed solve, outerIter=1
[1] Bidomain phiE solve debug: proc=1 completed solve, outerIter=1
[2] Bidomain phiE solve debug: proc=2 completed solve, outerIter=1
[4] Bidomain phiE solve debug: proc=4 completed solve, outerIter=1
DICPCG:  Solving for Vm, Initial residual = 0.000534737, Final residual = 4.82752e-18, No Iterations 4
PIMPLE: iteration 2
[1] Bidomain phiE solve debug: proc=1 entering solve, refCell=-1 refValue=0 outerIter=2
[3] Bidomain phiE solve debug: proc=3 entering solve, refCell=2 refValue=0 outerIter=2
[5] Bidomain phiE solve debug: proc=5 entering solve, refCell=-1 refValue=0 outerIter=2
[2] Bidomain phiE solve debug: proc=2 entering solve, refCell=-1 refValue=0 outerIter=2
[4] Bidomain phiE solve debug: proc=4 entering solve, refCell=-1 refValue=0 outerIter=2
[0] Bidomain phiE solve debug: proc=0 entering solve, refCell=-1 refValue=0 outerIter=2
DICPCG:  Solving for phiE, Initial residual = 0.000135623, Final residual = 2.013e-18, No Iterations 11
[5] Bidomain phiE solve debug: proc=5 completed solve, outerIter=2
[1] Bidomain phiE solve debug: proc=1 completed solve, outerIter=2
[3] Bidomain phiE solve debug: proc=3 completed solve, outerIter=2
[4] Bidomain phiE solve debug: proc=4 completed solve, outerIter=2
[2] Bidomain phiE solve debug: proc=2 completed solve, outerIter=2
[0] Bidomain phiE solve debug: proc=0 completed solve, outerIter=2
DICPCG:  Solving for Vm, Initial residual = 1.02041e-07, Final residual = 3.55268e-19, No Iterations 3
ExecutionTime = 0 s  ClockTime = 0 s

Time = 0.0470851

[3] Bidomain phiE reference debug: proc=3 point=(0.125 0.05 0.05) refCell=2 ownsReference=1
DEBUG cell=0 t=0.044843→0.0470851 step=0.00224215 V=-0.0801913 u1=1.51318 u2=0.775023 u3=0 Iion=0.085266
DEBUG cell=0 t=0.044843→0.0470851 step=0.0201793 V=-0.0801913 u1=1.51652 u2=0.773364 u3=0 Iion=0.0851929
[0] Bidomain phiE reference debug: proc=0 point=(0.125 0.05 0.05) refCell=-1 ownsReference=0
[1] Bidomain phiE reference debug: proc=1 point=(0.125 0.05 0.05) refCell=-1 ownsReference=0
[5] Bidomain phiE reference debug: proc=5 point=(0.125 0.05 0.05) refCell=-1 ownsReference=0
Bidomain phiE reference summary: ownerCount=1 ownerProc=3 point=(0.125 0.05 0.05)
PIMPLE: iteration 1
[4] Bidomain phiE reference debug: proc=4 point=(0.125 0.05 0.05) refCell=-1 ownsReference=0
[2] Bidomain phiE reference debug: proc=2 point=(0.125 0.05 0.05) refCell=-1 ownsReference=0
[3] Bidomain phiE solve debug: proc=3 entering solve, refCell=2 refValue=0 outerIter=1
[5] Bidomain phiE solve debug: proc=5 entering solve, refCell=-1 refValue=0 outerIter=1
[1] Bidomain phiE solve debug: proc=1 entering solve, refCell=-1 refValue=0 outerIter=1
[2] Bidomain phiE solve debug: proc=2 entering solve, refCell=-1 refValue=0 outerIter=1
[4] Bidomain phiE solve debug: proc=4 entering solve, refCell=-1 refValue=0 outerIter=1
[0] Bidomain phiE solve debug: proc=0 entering solve, refCell=-1 refValue=0 outerIter=1
DICPCG:  Solving for phiE, Initial residual = 2.58513e-08, Final residual = 3.22718e-22, No Iterations 11
[0] Bidomain phiE solve debug: proc=0 completed solve, outerIter=1
[3] Bidomain phiE solve debug: proc=3 completed solve, outerIter=1
[5] Bidomain phiE solve debug: proc=5 completed solve, outerIter=1
[1] Bidomain phiE solve debug: proc=1 completed solve, outerIter=1
[2] Bidomain phiE solve debug: proc=2 completed solve, outerIter=1
[4] Bidomain phiE solve debug: proc=4 completed solve, outerIter=1
DICPCG:  Solving for Vm, Initial residual = 0.000533588, Final residual = 4.81715e-18, No Iterations 4
PIMPLE: iteration 2
[3] Bidomain phiE solve debug: proc=3 entering solve, refCell=2 refValue=0 outerIter=2
[1] Bidomain phiE solve debug: proc=1 entering solve, refCell=-1 refValue=0 outerIter=2
[2] Bidomain phiE solve debug: proc=2 entering solve, refCell=-1 refValue=0 outerIter=2
[4] Bidomain phiE solve debug: proc=4 entering solve, refCell=-1 refValue=0 outerIter=2
[5] Bidomain phiE solve debug: proc=5 entering solve, refCell=-1 refValue=0 outerIter=2
[0] Bidomain phiE solve debug: proc=0 entering solve, refCell=-1 refValue=0 outerIter=2
DICPCG:  Solving for phiE, Initial residual = 0.000135332, Final residual = 1.82888e-18, No Iterations 11
[0] Bidomain phiE solve debug: proc=0 completed solve, outerIter=2
[3] Bidomain phiE solve debug: proc=3 completed solve, outerIter=2
[1] Bidomain phiE solve debug: proc=1 completed solve, outerIter=2
[5] Bidomain phiE solve debug: proc=5 completed solve, outerIter=2
[2] Bidomain phiE solve debug: proc=2 completed solve, outerIter=2
[4] Bidomain phiE solve debug: proc=4 completed solve, outerIter=2
DICPCG:  Solving for Vm, Initial residual = 1.01822e-07, Final residual = 3.54512e-19, No Iterations 3
ExecutionTime = 0.01 s  ClockTime = 0 s

Time = 0.0493273

DEBUG cell=0 t=0.0470851→0.0493273 step=0.00224215 V=-0.0802769 u1=1.51652 u2=0.773364 u3=0 Iion=0.0851929
[3] Bidomain phiE reference debug: proc=3 point=(0.125 0.05 0.05) refCell=2 ownsReference=1
[1] Bidomain phiE reference debug: proc=1 point=(0.125 0.05 0.05) refCell=-1 ownsReference=0
[5] Bidomain phiE reference debug: proc=5 point=(0.125 0.05 0.05) refCell=-1 ownsReference=0
DEBUG cell=0 t=0.0470851→0.0493273 step=0.0201793 V=-0.0802769 u1=1.51985 u2=0.771711 u3=0 Iion=0.0851201
[0] Bidomain phiE reference debug: proc=0 point=(0.125 0.05 0.05) refCell=-1 ownsReference=0
[2] Bidomain phiE reference debug: proc=2 point=(0.125 0.05 0.05) refCell=-1 ownsReference=0
[4] Bidomain phiE reference debug: proc=4 point=(0.125 0.05 0.05) refCell=-1 ownsReference=0
Bidomain phiE reference summary: ownerCount=1 ownerProc=3 point=(0.125 0.05 0.05)
PIMPLE: iteration 1
[3] Bidomain phiE solve debug: proc=3 entering solve, refCell=2 refValue=0 outerIter=1
[1] Bidomain phiE solve debug: proc=1 entering solve, refCell=-1 refValue=0 outerIter=1
[2] Bidomain phiE solve debug: proc=2 entering solve, refCell=-1 refValue=0 outerIter=1
[5] Bidomain phiE solve debug: proc=5 entering solve, refCell=-1 refValue=0 outerIter=1
[4] Bidomain phiE solve debug: proc=4 entering solve, refCell=-1 refValue=0 outerIter=1
[0] Bidomain phiE solve debug: proc=0 entering solve, refCell=-1 refValue=0 outerIter=1
DICPCG:  Solving for phiE, Initial residual = 2.57958e-08, Final residual = 3.29158e-22, No Iterations 11
[0] Bidomain phiE solve debug: proc=0 completed solve, outerIter=1
[3] Bidomain phiE solve debug: proc=3 completed solve, outerIter=1
[1] Bidomain phiE solve debug: proc=1 completed solve, outerIter=1
[5] Bidomain phiE solve debug: proc=5 completed solve, outerIter=1
[2] Bidomain phiE solve debug: proc=2 completed solve, outerIter=1
[4] Bidomain phiE solve debug: proc=4 completed solve, outerIter=1
DICPCG:  Solving for Vm, Initial residual = 0.000532445, Final residual = 4.80682e-18, No Iterations 4
PIMPLE: iteration 2
[1] Bidomain phiE solve debug: proc=1 entering solve, refCell=-1 refValue=0 outerIter=2
[2] Bidomain phiE solve debug: proc=2 entering solve, refCell=-1 refValue=0 outerIter=2
[4] Bidomain phiE solve debug: proc=4 entering solve, refCell=-1 refValue=0 outerIter=2
[5] Bidomain phiE solve debug: proc=5 entering solve, refCell=-1 refValue=0 outerIter=2
[3] Bidomain phiE solve debug: proc=3 entering solve, refCell=2 refValue=0 outerIter=2
[0] Bidomain phiE solve debug: proc=0 entering solve, refCell=-1 refValue=0 outerIter=2
DICPCG:  Solving for phiE, Initial residual = 0.000135041, Final residual = 1.15918e-18, No Iterations 11
[0] Bidomain phiE solve debug: proc=0 completed solve, outerIter=2
[5] Bidomain phiE solve debug: proc=5 completed solve, outerIter=2
[1] Bidomain phiE solve debug: proc=1 completed solve, outerIter=2
[3] Bidomain phiE solve debug: proc=3 completed solve, outerIter=2
[4] Bidomain phiE solve debug: proc=4 completed solve, outerIter=2
[2] Bidomain phiE solve debug: proc=2 completed solve, outerIter=2
DICPCG:  Solving for Vm, Initial residual = 1.01604e-07, Final residual = 3.5376e-19, No Iterations 3
ExecutionTime = 0.01 s  ClockTime = 0 s

Time = 0.0515694

DEBUG cell=0 t=0.0493273→0.0515694 step=0.00224215 V=-0.0803625 u1=1.51985 u2=0.771711 u3=0 Iion=0.0851201
[3] Bidomain phiE reference debug: proc=3 point=(0.125 0.05 0.05) refCell=2 ownsReference=1
[1] Bidomain phiE reference debug: proc=1 point=(0.125 0.05 0.05) refCell=-1 ownsReference=0
[5] Bidomain phiE reference debug: proc=5 point=(0.125 0.05 0.05) refCell=-1 ownsReference=0
DEBUG cell=0 t=0.0493273→0.0515694 step=0.0201793 V=-0.0803625 u1=1.52318 u2=0.770066 u3=0 Iion=0.0850475
[0] Bidomain phiE reference debug: proc=0 point=(0.125 0.05 0.05) refCell=-1 ownsReference=0
[2] Bidomain phiE reference debug: proc=2 point=(0.125 0.05 0.05) refCell=-1 ownsReference=0
[4] Bidomain phiE reference debug: proc=4 point=(0.125 0.05 0.05) refCell=-1 ownsReference=0
Bidomain phiE reference summary: ownerCount=1 ownerProc=3 point=(0.125 0.05 0.05)
PIMPLE: iteration 1
[3] Bidomain phiE solve debug: proc=3 entering solve, refCell=2 refValue=0 outerIter=1
[1] Bidomain phiE solve debug: proc=1 entering solve, refCell=-1 refValue=0 outerIter=1
[5] Bidomain phiE solve debug: proc=5 entering solve, refCell=-1 refValue=0 outerIter=1
[2] Bidomain phiE solve debug: proc=2 entering solve, refCell=-1 refValue=0 outerIter=1
[0] Bidomain phiE solve debug: proc=0 entering solve, refCell=-1 refValue=0 outerIter=1
[4] Bidomain phiE solve debug: proc=4 entering solve, refCell=-1 refValue=0 outerIter=1
DICPCG:  Solving for phiE, Initial residual = 2.57406e-08, Final residual = 3.14124e-22, No Iterations 11
[3] Bidomain phiE solve debug: proc=3 completed solve, outerIter=1
[0] Bidomain phiE solve debug: proc=0 completed solve, outerIter=1
[5] Bidomain phiE solve debug: proc=5 completed solve, outerIter=1
[1] Bidomain phiE solve debug: proc=1 completed solve, outerIter=1
[4] Bidomain phiE solve debug: proc=4 completed solve, outerIter=1
[2] Bidomain phiE solve debug: proc=2 completed solve, outerIter=1
DICPCG:  Solving for Vm, Initial residual = 0.000531306, Final residual = 4.79654e-18, No Iterations 4
PIMPLE: iteration 2
[3] Bidomain phiE solve debug: proc=3 entering solve, refCell=2 refValue=0 outerIter=2
[1] Bidomain phiE solve debug: proc=1 entering solve, refCell=-1 refValue=0 outerIter=2
[5] Bidomain phiE solve debug: proc=5 entering solve, refCell=-1 refValue=0 outerIter=2
[2] Bidomain phiE solve debug: proc=2 entering solve, refCell=-1 refValue=0 outerIter=2
[4] Bidomain phiE solve debug: proc=4 entering solve, refCell=-1 refValue=0 outerIter=2
[0] Bidomain phiE solve debug: proc=0 entering solve, refCell=-1 refValue=0 outerIter=2
DICPCG:  Solving for phiE, Initial residual = 0.000134752, Final residual = 9.89394e-19, No Iterations 11
[0] Bidomain phiE solve debug: proc=0 completed solve, outerIter=2
[5] Bidomain phiE solve debug: proc=5 completed solve, outerIter=2
[1] Bidomain phiE solve debug: proc=1 completed solve, outerIter=2
[3] Bidomain phiE solve debug: proc=3 completed solve, outerIter=2
[2] Bidomain phiE solve debug: proc=2 completed solve, outerIter=2
[4] Bidomain phiE solve debug: proc=4 completed solve, outerIter=2
DICPCG:  Solving for Vm, Initial residual = 1.01387e-07, Final residual = 3.53011e-19, No Iterations 3
ExecutionTime = 0.01 s  ClockTime = 0 s

Time = 0.0538116

[3] Bidomain phiE reference debug: proc=3 point=(0.125 0.05 0.05) refCell=2 ownsReference=1
DEBUG cell=0 t=0.0515694→0.0538116 step=0.00224215 V=-0.0804479 u1=1.52318 u2=0.770066 u3=0 Iion=0.0850475
DEBUG cell=0 t=0.0515694→0.0538116 step=0.0201793 V=-0.0804479 u1=1.52652 u2=0.768427 u3=0 Iion=0.0849751
[1] Bidomain phiE reference debug: proc=1 point=(0.125 0.05 0.05) refCell=-1 ownsReference=0
[5] Bidomain phiE reference debug: proc=5 point=(0.125 0.05 0.05) refCell=-1 ownsReference=0
[2] Bidomain phiE reference debug: proc=2 point=(0.125 0.05 0.05) refCell=-1 ownsReference=0
[4] Bidomain phiE reference debug: proc=4 point=(0.125 0.05 0.05) refCell=-1 ownsReference=0
[0] Bidomain phiE reference debug: proc=0 point=(0.125 0.05 0.05) refCell=-1 ownsReference=0
Bidomain phiE reference summary: ownerCount=1 ownerProc=3 point=(0.125 0.05 0.05)
PIMPLE: iteration 1
[1] Bidomain phiE solve debug: proc=1 entering solve, refCell=-1 refValue=0 outerIter=1
[5] Bidomain phiE solve debug: proc=5 entering solve, refCell=-1 refValue=0 outerIter=1
[4] Bidomain phiE solve debug: proc=4 entering solve, refCell=-1 refValue=0 outerIter=1
[2] Bidomain phiE solve debug: proc=2 entering solve, refCell=-1 refValue=0 outerIter=1
[3] Bidomain phiE solve debug: proc=3 entering solve, refCell=2 refValue=0 outerIter=1
[0] Bidomain phiE solve debug: proc=0 entering solve, refCell=-1 refValue=0 outerIter=1
DICPCG:  Solving for phiE, Initial residual = 2.56855e-08, Final residual = 2.57194e-22, No Iterations 11
[0] Bidomain phiE solve debug: proc=0 completed solve, outerIter=1
[3] Bidomain phiE solve debug: proc=3 completed solve, outerIter=1
[1] Bidomain phiE solve debug: proc=1 completed solve, outerIter=1
[5] Bidomain phiE solve debug: proc=5 completed solve, outerIter=1
[2] Bidomain phiE solve debug: proc=2 completed solve, outerIter=1
[4] Bidomain phiE solve debug: proc=4 completed solve, outerIter=1
DICPCG:  Solving for Vm, Initial residual = 0.000530172, Final residual = 4.7863e-18, No Iterations 4
PIMPLE: iteration 2
[1] Bidomain phiE solve debug: proc=1 entering solve, refCell=-1 refValue=0 outerIter=2
[3] Bidomain phiE solve debug: proc=3 entering solve, refCell=2 refValue=0 outerIter=2
[2] Bidomain phiE solve debug: proc=2 entering solve, refCell=-1 refValue=0 outerIter=2
[4] Bidomain phiE solve debug: proc=4 entering solve, refCell=-1 refValue=0 outerIter=2
[0] Bidomain phiE solve debug: proc=0 entering solve, refCell=-1 refValue=0 outerIter=2
[5] Bidomain phiE solve debug: proc=5 entering solve, refCell=-1 refValue=0 outerIter=2
DICPCG:  Solving for phiE, Initial residual = 0.000134465, Final residual = 1.76727e-18, No Iterations 11
[0] Bidomain phiE solve debug: proc=0 completed solve, outerIter=2
[3] Bidomain phiE solve debug: proc=3 completed solve, outerIter=2
[1] Bidomain phiE solve debug: proc=1 completed solve, outerIter=2
[5] Bidomain phiE solve debug: proc=5 completed solve, outerIter=2
[4] Bidomain phiE solve debug: proc=4 completed solve, outerIter=2
[2] Bidomain phiE solve debug: proc=2 completed solve, outerIter=2
DICPCG:  Solving for Vm, Initial residual = 1.0117e-07, Final residual = 3.52265e-19, No Iterations 3
ExecutionTime = 0.01 s  ClockTime = 0 s

Time = 0.0560537

[3] Bidomain phiE reference debug: proc=3 point=(0.125 0.05 0.05) refCell=2 ownsReference=1
DEBUG cell=0 t=0.0538116→0.0560537 step=0.00224215 V=-0.0805332 u1=1.52652 u2=0.768427 u3=0 Iion=0.0849751
[...]
DEBUG cell=0 t=0.186098→0.188341 step=0.0201793 V=-0.0854153 u1=1.72667 u2=0.681438 u3=0 Iion=0.0810466
[1] Bidomain phiE reference debug: proc=1 point=(0.125 0.05 0.05) refCell=-1 ownsReference=0
[5] Bidomain phiE reference debug: proc=5 point=(0.125 0.05 0.05) refCell=-1 ownsReference=0
[0] Bidomain phiE reference debug: proc=0 point=(0.125 0.05 0.05) refCell=-1 ownsReference=0
[2] Bidomain phiE reference debug: proc=2 point=(0.125 0.05 0.05) refCell=-1 ownsReference=0
[4] Bidomain phiE reference debug: proc=4 point=(0.125 0.05 0.05) refCell=-1 ownsReference=0
Bidomain phiE reference summary: ownerCount=1 ownerProc=3 point=(0.125 0.05 0.05)
PIMPLE: iteration 1
[1] Bidomain phiE solve debug: proc=1 entering solve, refCell=-1 refValue=0 outerIter=1
[4] Bidomain phiE solve debug: proc=4 entering solve, refCell=-1 refValue=0 outerIter=1
[3] Bidomain phiE solve debug: proc=3 entering solve, refCell=2 refValue=0 outerIter=1
[0] Bidomain phiE solve debug: proc=0 entering solve, refCell=-1 refValue=0 outerIter=1
[5] Bidomain phiE solve debug: proc=5 entering solve, refCell=-1 refValue=0 outerIter=1
[2] Bidomain phiE solve debug: proc=2 entering solve, refCell=-1 refValue=0 outerIter=1
DICPCG:  Solving for phiE, Initial residual = 2.27645e-08, Final residual = 2.00388e-22, No Iterations 11
[0] Bidomain phiE solve debug: proc=0 completed solve, outerIter=1
[3] Bidomain phiE solve debug: proc=3 completed solve, outerIter=1
[5] Bidomain phiE solve debug: proc=5 completed solve, outerIter=1
[1] Bidomain phiE solve debug: proc=1 completed solve, outerIter=1
[2] Bidomain phiE solve debug: proc=2 completed solve, outerIter=1
[4] Bidomain phiE solve debug: proc=4 completed solve, outerIter=1
DICPCG:  Solving for Vm, Initial residual = 0.000469963, Final residual = 4.24281e-18, No Iterations 4
PIMPLE: iteration 2
[1] Bidomain phiE solve debug: proc=1 entering solve, refCell=-1 refValue=0 outerIter=2
[2] Bidomain phiE solve debug: proc=2 entering solve, refCell=-1 refValue=0 outerIter=2
[0] Bidomain phiE solve debug: proc=0 entering solve, refCell=-1 refValue=0 outerIter=2
[3] Bidomain phiE solve debug: proc=3 entering solve, refCell=2 refValue=0 outerIter=2
[4] Bidomain phiE solve debug: proc=4 entering solve, refCell=-1 refValue=0 outerIter=2
[5] Bidomain phiE solve debug: proc=5 entering solve, refCell=-1 refValue=0 outerIter=2
DICPCG:  Solving for phiE, Initial residual = 0.000119188, Final residual = 7.82348e-19, No Iterations 11
[0] Bidomain phiE solve debug: proc=0 completed solve, outerIter=2
[1] Bidomain phiE solve debug: proc=1 completed solve, outerIter=2
[3] Bidomain phiE solve debug: proc=3 completed solve, outerIter=2
[4] Bidomain phiE solve debug: proc=4 completed solve, outerIter=2
[2] Bidomain phiE solve debug: proc=2 completed solve, outerIter=2
[5] Bidomain phiE solve debug: proc=5 completed solve, outerIter=2
DICPCG:  Solving for Vm, Initial residual = 8.96867e-08, Final residual = 3.12536e-19, No Iterations 3
ExecutionTime = 0.03 s  ClockTime = 0 s

Time = 0.190583

DEBUG cell=0 t=0.188341→0.190583 step=0.00224215 V=-0.0854956 u1=1.72667 u2=0.681438 u3=0 Iion=0.0810466
[3] Bidomain phiE reference debug: proc=3 point=(0.125 0.05 0.05) refCell=2 ownsReference=1
DEBUG cell=0 t=0.188341→0.190583 step=0.0201793 V=-0.0854956 u1=1.73001 u2=0.680155 u3=0 Iion=0.0809873
[0] Bidomain phiE reference debug: proc=0 point=(0.125 0.05 0.05) refCell=-1 ownsReference=0
Bidomain phiE reference summary: ownerCount=1 ownerProc=3 point=(0.125 0.05 0.05)
[1] Bidomain phiE reference debug: proc=1 point=(0.125 0.05 0.05) refCell=-1 ownsReference=0
[5] Bidomain phiE reference debug: proc=5 point=(0.125 0.05 0.05) refCell=-1 ownsReference=0
[4] Bidomain phiE reference debug: proc=4 point=(0.125 0.05 0.05) refCell=-1 ownsReference=0
[2] Bidomain phiE reference debug: proc=2 point=(0.125 0.05 0.05) refCell=-1 ownsReference=0
PIMPLE: iteration 1
[1] Bidomain phiE solve debug: proc=1 entering solve, refCell=-1 refValue=0 outerIter=1
[0] Bidomain phiE solve debug: proc=0 entering solve, refCell=-1 refValue=0 outerIter=1
[3] Bidomain phiE solve debug: proc=3 entering solve, refCell=2 refValue=0 outerIter=1
[4] Bidomain phiE solve debug: proc=4 entering solve, refCell=-1 refValue=0 outerIter=1
[2] Bidomain phiE solve debug: proc=2 entering solve, refCell=-1 refValue=0 outerIter=1
[5] Bidomain phiE solve debug: proc=5 entering solve, refCell=-1 refValue=0 outerIter=1
DICPCG:  Solving for phiE, Initial residual = 2.27214e-08, Final residual = 2.28499e-22, No Iterations 11
[0] Bidomain phiE solve debug: proc=0 completed solve, outerIter=1
[3] Bidomain phiE solve debug: proc=3 completed solve, outerIter=1
[1] Bidomain phiE solve debug: proc=1 completed solve, outerIter=1
[5] Bidomain phiE solve debug: proc=5 completed solve, outerIter=1
[4] Bidomain phiE solve debug: proc=4 completed solve, outerIter=1
[2] Bidomain phiE solve debug: proc=2 completed solve, outerIter=1
DICPCG:  Solving for Vm, Initial residual = 0.000469075, Final residual = 4.23479e-18, No Iterations 4
PIMPLE: iteration 2
[1] Bidomain phiE solve debug: proc=1 entering solve, refCell=-1 refValue=0 outerIter=2
[2] Bidomain phiE solve debug: proc=2 entering solve, refCell=-1 refValue=0 outerIter=2
[0] Bidomain phiE solve debug: proc=0 entering solve, refCell=-1 refValue=0 outerIter=2
[3] Bidomain phiE solve debug: proc=3 entering solve, refCell=2 refValue=0 outerIter=2
[4] Bidomain phiE solve debug: proc=4 entering solve, refCell=-1 refValue=0 outerIter=2
[5] Bidomain phiE solve debug: proc=5 entering solve, refCell=-1 refValue=0 outerIter=2
DICPCG:  Solving for phiE, Initial residual = 0.000118962, Final residual = 1.41005e-18, No Iterations 11
[3] Bidomain phiE solve debug: proc=3 completed solve, outerIter=2
[1] Bidomain phiE solve debug: proc=1 completed solve, outerIter=2
[0] Bidomain phiE solve debug: proc=0 completed solve, outerIter=2
[5] Bidomain phiE solve debug: proc=5 completed solve, outerIter=2
[4] Bidomain phiE solve debug: proc=4 completed solve, outerIter=2
[2] Bidomain phiE solve debug: proc=2 completed solve, outerIter=2
DICPCG:  Solving for Vm, Initial residual = 8.95172e-08, Final residual = 3.11949e-19, No Iterations 3
ExecutionTime = 0.03 s  ClockTime = 0 s

Time = 0.192825

DEBUG cell=0 t=0.190583→0.192825 step=0.00224215 V=-0.0855758 u1=1.73001 u2=0.680155 u3=0 Iion=0.0809873
DEBUG cell=0 t=0.190583→0.192825 step=0.0201793 V=-0.0855758 u1=1.73335 u2=0.678877 u3=0 Iion=0.0809282
[3] Bidomain phiE reference debug: proc=3 point=(0.125 0.05 0.05) refCell=2 ownsReference=1
[1] Bidomain phiE reference debug: proc=1 point=(0.125 0.05 0.05) refCell=-1 ownsReference=0
[5] Bidomain phiE reference debug: proc=5 point=(0.125 0.05 0.05) refCell=-1 ownsReference=0
[0] Bidomain phiE reference debug: proc=0 point=(0.125 0.05 0.05) refCell=-1 ownsReference=0
[4] Bidomain phiE reference debug: proc=4 point=(0.125 0.05 0.05) refCell=-1 ownsReference=0
[2] Bidomain phiE reference debug: proc=2 point=(0.125 0.05 0.05) refCell=-1 ownsReference=0
Bidomain phiE reference summary: ownerCount=1 ownerProc=3 point=(0.125 0.05 0.05)
PIMPLE: iteration 1
[0] Bidomain phiE solve debug: proc=0 entering solve, refCell=-1 refValue=0 outerIter=1
[3] Bidomain phiE solve debug: proc=3 entering solve, refCell=2 refValue=0 outerIter=1
[1] Bidomain phiE solve debug: proc=1 entering solve, refCell=-1 refValue=0 outerIter=1
[4] Bidomain phiE solve debug: proc=4 entering solve, refCell=-1 refValue=0 outerIter=1
[5] Bidomain phiE solve debug: proc=5 entering solve, refCell=-1 refValue=0 outerIter=1
[2] Bidomain phiE solve debug: proc=2 entering solve, refCell=-1 refValue=0 outerIter=1
DICPCG:  Solving for phiE, Initial residual = 2.26785e-08, Final residual = 4.52878e-22, No Iterations 11
[0] Bidomain phiE solve debug: proc=0 completed solve, outerIter=1
[3] Bidomain phiE solve debug: proc=3 completed solve, outerIter=1
[1] Bidomain phiE solve debug: proc=1 completed solve, outerIter=1
[5] Bidomain phiE solve debug: proc=5 completed solve, outerIter=1
[4] Bidomain phiE solve debug: proc=4 completed solve, outerIter=1
[2] Bidomain phiE solve debug: proc=2 completed solve, outerIter=1
DICPCG:  Solving for Vm, Initial residual = 0.00046819, Final residual = 4.2268e-18, No Iterations 4
PIMPLE: iteration 2
[3] Bidomain phiE solve debug: proc=3 entering solve, refCell=2 refValue=0 outerIter=2
[5] Bidomain phiE solve debug: proc=5 entering solve, refCell=-1 refValue=0 outerIter=2
[0] Bidomain phiE solve debug: proc=0 entering solve, refCell=-1 refValue=0 outerIter=2
[4] Bidomain phiE solve debug: proc=4 entering solve, refCell=-1 refValue=0 outerIter=2
[1] Bidomain phiE solve debug: proc=1 entering solve, refCell=-1 refValue=0 outerIter=2
[2] Bidomain phiE solve debug: proc=2 entering solve, refCell=-1 refValue=0 outerIter=2
DICPCG:  Solving for phiE, Initial residual = 0.000118738, Final residual = 1.42123e-18, No Iterations 11
[0] Bidomain phiE solve debug: proc=0 completed solve, outerIter=2
[3] Bidomain phiE solve debug: proc=3 completed solve, outerIter=2
[5] Bidomain phiE solve debug: proc=5 completed solve, outerIter=2
[1] Bidomain phiE solve debug: proc=1 completed solve, outerIter=2
[2] Bidomain phiE solve debug: proc=2 completed solve, outerIter=2
[4] Bidomain phiE solve debug: proc=4 completed solve, outerIter=2
DICPCG:  Solving for Vm, Initial residual = 8.93485e-08, Final residual = 3.11364e-19, No Iterations 3
ExecutionTime = 0.03 s  ClockTime = 0 s

Time = 0.195067

DEBUG cell=0 t=0.192825→0.195067 step=0.00224215 V=-0.0856559 u1=1.73335 u2=0.678877 u3=0 Iion=0.0809282
[3] Bidomain phiE reference debug: proc=3 point=(0.125 0.05 0.05) refCell=2 ownsReference=1
DEBUG cell=0 t=0.192825→0.195067 step=0.0201793 V=-0.0856559 u1=1.73669 u2=0.677603 u3=0 Iion=0.0808692
[0] Bidomain phiE reference debug: proc=0 point=(0.125 0.05 0.05) refCell=-1 ownsReference=0
[1] Bidomain phiE reference debug: proc=1 point=(0.125 0.05 0.05) refCell=-1 ownsReference=0
[5] Bidomain phiE reference debug: proc=5 point=(0.125 0.05 0.05) refCell=-1 ownsReference=0
Bidomain phiE reference summary: ownerCount=1 ownerProc=3 point=(0.125 0.05 0.05)
[2] Bidomain phiE reference debug: proc=2 point=(0.125 0.05 0.05) refCell=-1 ownsReference=0
[4] Bidomain phiE reference debug: proc=4 point=(0.125 0.05 0.05) refCell=-1 ownsReference=0
PIMPLE: iteration 1
[3] Bidomain phiE solve debug: proc=3 entering solve, refCell=2 refValue=0 outerIter=1
[5] Bidomain phiE solve debug: proc=5 entering solve, refCell=-1 refValue=0 outerIter=1
[4] Bidomain phiE solve debug: proc=4 entering solve, refCell=-1 refValue=0 outerIter=1
[1] Bidomain phiE solve debug: proc=1 entering solve, refCell=-1 refValue=0 outerIter=1
[0] Bidomain phiE solve debug: proc=0 entering solve, refCell=-1 refValue=0 outerIter=1
[2] Bidomain phiE solve debug: proc=2 entering solve, refCell=-1 refValue=0 outerIter=1
DICPCG:  Solving for phiE, Initial residual = 2.26357e-08, Final residual = 1.91377e-22, No Iterations 11
[0] Bidomain phiE solve debug: proc=0 completed solve, outerIter=1
[3] Bidomain phiE solve debug: proc=3 completed solve, outerIter=1
[5] Bidomain phiE solve debug: proc=5 completed solve, outerIter=1
[1] Bidomain phiE solve debug: proc=1 completed solve, outerIter=1
[2] Bidomain phiE solve debug: proc=2 completed solve, outerIter=1
[4] Bidomain phiE solve debug: proc=4 completed solve, outerIter=1
DICPCG:  Solving for Vm, Initial residual = 0.000467309, Final residual = 4.21885e-18, No Iterations 4
PIMPLE: iteration 2
[1] Bidomain phiE solve debug: proc=1 entering solve, refCell=-1 refValue=0 outerIter=2
[3] Bidomain phiE solve debug: proc=3 entering solve, refCell=2 refValue=0 outerIter=2
[0] Bidomain phiE solve debug: proc=0 entering solve, refCell=-1 refValue=0 outerIter=2
[5] Bidomain phiE solve debug: proc=5 entering solve, refCell=-1 refValue=0 outerIter=2
[2] Bidomain phiE solve debug: proc=2 entering solve, refCell=-1 refValue=0 outerIter=2
[4] Bidomain phiE solve debug: proc=4 entering solve, refCell=-1 refValue=0 outerIter=2
DICPCG:  Solving for phiE, Initial residual = 0.000118514, Final residual = 1.25003e-18, No Iterations 11
[3] Bidomain phiE solve debug: proc=3 completed solve, outerIter=2
[5] Bidomain phiE solve debug: proc=5 completed solve, outerIter=2
[1] Bidomain phiE solve debug: proc=1 completed solve, outerIter=2
[0] Bidomain phiE solve debug: proc=0 completed solve, outerIter=2
[2] Bidomain phiE solve debug: proc=2 completed solve, outerIter=2
[4] Bidomain phiE solve debug: proc=4 completed solve, outerIter=2
DICPCG:  Solving for Vm, Initial residual = 8.91803e-08, Final residual = 3.10782e-19, No Iterations 3
ExecutionTime = 0.03 s  ClockTime = 0 s

Time = 0.197309

DEBUG cell=0 t=0.195067→0.197309 step=0.00224215 V=-0.085736 u1=1.73669 u2=0.677603 u3=0 Iion=0.0808692
[3] Bidomain phiE reference debug: proc=3 point=(0.125 0.05 0.05) refCell=2 ownsReference=1
DEBUG cell=0 t=0.195067→0.197309 step=0.0201793 V=-0.085736 u1=1.74003 u2=0.676334 u3=0 Iion=0.0808105
[5] Bidomain phiE reference debug: proc=5 point=(0.125 0.05 0.05) refCell=-1 ownsReference=0
[1] Bidomain phiE reference debug: proc=1 point=(0.125 0.05 0.05) refCell=-1 ownsReference=0
[0] Bidomain phiE reference debug: proc=0 point=(0.125 0.05 0.05) refCell=-1 ownsReference=0
[4] Bidomain phiE reference debug: proc=4 point=(0.125 0.05 0.05) refCell=-1 ownsReference=0
[2] Bidomain phiE reference debug: proc=2 point=(0.125 0.05 0.05) refCell=-1 ownsReference=0
Bidomain phiE reference summary: ownerCount=1 ownerProc=3 point=(0.125 0.05 0.05)
PIMPLE: iteration 1
[1] Bidomain phiE solve debug: proc=1 entering solve, refCell=-1 refValue=0 outerIter=1
[0] Bidomain phiE solve debug: proc=0 entering solve, refCell=-1 refValue=0 outerIter=1
[4] Bidomain phiE solve debug: proc=4 entering solve, refCell=-1 refValue=0 outerIter=1
[5] Bidomain phiE solve debug: proc=5 entering solve, refCell=-1 refValue=0 outerIter=1
[3] Bidomain phiE solve debug: proc=3 entering solve, refCell=2 refValue=0 outerIter=1
[2] Bidomain phiE solve debug: proc=2 entering solve, refCell=-1 refValue=0 outerIter=1
DICPCG:  Solving for phiE, Initial residual = 2.25931e-08, Final residual = 1.99916e-22, No Iterations 11
[0] Bidomain phiE solve debug: proc=0 completed solve, outerIter=1
[3] Bidomain phiE solve debug: proc=3 completed solve, outerIter=1
[5] Bidomain phiE solve debug: proc=5 completed solve, outerIter=1
[1] Bidomain phiE solve debug: proc=1 completed solve, outerIter=1
[4] Bidomain phiE solve debug: proc=4 completed solve, outerIter=1
[2] Bidomain phiE solve debug: proc=2 completed solve, outerIter=1
DICPCG:  Solving for Vm, Initial residual = 0.00046643, Final residual = 4.21092e-18, No Iterations 4
PIMPLE: iteration 2
[3] Bidomain phiE solve debug: proc=3 entering solve, refCell=2 refValue=0 outerIter=2
[5] Bidomain phiE solve debug: proc=5 entering solve, refCell=-1 refValue=0 outerIter=2
[1] Bidomain phiE solve debug: proc=1 entering solve, refCell=-1 refValue=0 outerIter=2
[0] Bidomain phiE solve debug: proc=0 entering solve, refCell=-1 refValue=0 outerIter=2
[4] Bidomain phiE solve debug: proc=4 entering solve, refCell=-1 refValue=0 outerIter=2
[2] Bidomain phiE solve debug: proc=2 entering solve, refCell=-1 refValue=0 outerIter=2
DICPCG:  Solving for phiE, Initial residual = 0.000118291, Final residual = 1.77633e-18, No Iterations 11
[3] Bidomain phiE solve debug: proc=3 completed solve, outerIter=2
[5] Bidomain phiE solve debug: proc=5 completed solve, outerIter=2
[1] Bidomain phiE solve debug: proc=1 completed solve, outerIter=2
[0] Bidomain phiE solve debug: proc=0 completed solve, outerIter=2
[4] Bidomain phiE solve debug: proc=4 completed solve, outerIter=2
[2] Bidomain phiE solve debug: proc=2 completed solve, outerIter=2
DICPCG:  Solving for Vm, Initial residual = 8.90128e-08, Final residual = 3.10201e-19, No Iterations 3
ExecutionTime = 0.03 s  ClockTime = 0 s

Time = 0.199551

DEBUG cell=0 t=0.197309→0.199551 step=0.00224215 V=-0.085816 u1=1.74003 u2=0.676334 u3=0 Iion=0.0808105
[3] Bidomain phiE reference debug: proc=3 point=(0.125 0.05 0.05) refCell=2 ownsReference=1
DEBUG cell=0 t=0.197309→0.199551 step=0.0201793 V=-0.085816 u1=1.74337 u2=0.67507 u3=0 Iion=0.0807519
[5] Bidomain phiE reference debug: proc=5 point=(0.125 0.05 0.05) refCell=-1 ownsReference=0
[1] Bidomain phiE reference debug: proc=1 point=(0.125 0.05 0.05) refCell=-1 ownsReference=0
[0] Bidomain phiE reference debug: proc=0 point=(0.125 0.05 0.05) refCell=-1 ownsReference=0
[2] Bidomain phiE reference debug: proc=2 point=(0.125 0.05 0.05) refCell=-1 ownsReference=0
[4] Bidomain phiE reference debug: proc=4 point=(0.125 0.05 0.05) refCell=-1 ownsReference=0
Bidomain phiE reference summary: ownerCount=1 ownerProc=3 point=(0.125 0.05 0.05)
PIMPLE: iteration 1
[3] Bidomain phiE solve debug: proc=3 entering solve, refCell=2 refValue=0 outerIter=1
[5] Bidomain phiE solve debug: proc=5 entering solve, refCell=-1 refValue=0 outerIter=1
[0] Bidomain phiE solve debug: proc=0 entering solve, refCell=-1 refValue=0 outerIter=1
[4] Bidomain phiE solve debug: proc=4 entering solve, refCell=-1 refValue=0 outerIter=1
[1] Bidomain phiE solve debug: proc=1 entering solve, refCell=-1 refValue=0 outerIter=1
[2] Bidomain phiE solve debug: proc=2 entering solve, refCell=-1 refValue=0 outerIter=1
DICPCG:  Solving for phiE, Initial residual = 2.25507e-08, Final residual = 2.26669e-22, No Iterations 11
[0] Bidomain phiE solve debug: proc=0 completed solve, outerIter=1
[3] Bidomain phiE solve debug: proc=3 completed solve, outerIter=1
[5] Bidomain phiE solve debug: proc=5 completed solve, outerIter=1
[1] Bidomain phiE solve debug: proc=1 completed solve, outerIter=1
[4] Bidomain phiE solve debug: proc=4 completed solve, outerIter=1
[2] Bidomain phiE solve debug: proc=2 completed solve, outerIter=1
DICPCG:  Solving for Vm, Initial residual = 0.000465555, Final residual = 4.20302e-18, No Iterations 4
PIMPLE: iteration 2
[3] Bidomain phiE solve debug: proc=3 entering solve, refCell=2 refValue=0 outerIter=2
[1] Bidomain phiE solve debug: proc=1 entering solve, refCell=-1 refValue=0 outerIter=2
[5] Bidomain phiE solve debug: proc=5 entering solve, refCell=-1 refValue=0 outerIter=2
[0] Bidomain phiE solve debug: proc=0 entering solve, refCell=-1 refValue=0 outerIter=2
[4] Bidomain phiE solve debug: proc=4 entering solve, refCell=-1 refValue=0 outerIter=2
[2] Bidomain phiE solve debug: proc=2 entering solve, refCell=-1 refValue=0 outerIter=2
DICPCG:  Solving for phiE, Initial residual = 0.000118069, Final residual = 1.55262e-18, No Iterations 11
[0] Bidomain phiE solve debug: proc=0 completed solve, outerIter=2
[3] Bidomain phiE solve debug: proc=3 completed solve, outerIter=2
[5] Bidomain phiE solve debug: proc=5 completed solve, outerIter=2
[1] Bidomain phiE solve debug: proc=1 completed solve, outerIter=2
[2] Bidomain phiE solve debug: proc=2 completed solve, outerIter=2
[4] Bidomain phiE solve debug: proc=4 completed solve, outerIter=2
DICPCG:  Solving for Vm, Initial residual = 8.88459e-08, Final residual = 3.09623e-19, No Iterations 3

Bidomain manufactured-solution error summary (t = 0.199551):
-------------------------------------------------
Field     L1-error       L2-error       Linf-error
Vm        0.000269733   0.00030193   0.000493474
phiE      0.00471704   0.00587483   0.00972886
phiI      0.0046202   0.00566548   0.00923538
u1        0.000141094   0.000159271   0.000268109
u2        3.72083e-05   4.43741e-05   9.13352e-05
-------------------------------------------------
Bidomain manufactured PDE residuals evaluated on exact fields:
-------------------------------------------------
Equation  L1-residual    L2-residual    Linf-residual
Vm        0.000461997   0.000512623   0.000722723
phiE      1.26224e-09   1.40055e-09   1.97457e-09
-------------------------------------------------
ExecutionTime = 0.04 s  ClockTime = 0 s


End

Finalising parallel run
