/*---------------------------------------------------------------------------*\
| =========                 |                                                 |
| \\      /  F ield         | OpenFOAM: The Open Source CFD Toolbox           |
|  \\    /   O peration     | Version:  2412                                  |
|   \\  /    A nd           | Website:  www.openfoam.com                      |
|    \\/     M anipulation  |                                                 |
\*---------------------------------------------------------------------------*/
Build  : _8dbc61e11c-20241220 OPENFOAM=2412 version=v2412
Arch   : "LSB;label=32;scalar=64"
Exec   : cardiacFoam -parallel
Date   : Apr 09 2026
Time   : 22:16:49
Host   : macbook
PID    : 4551
I/O    : uncollated
Case   : /Users/simaocastro/cardiacFoamEPsacred/cardiacFoamsacred/tutorials/bidomainFDA
nProcs : 6
Hosts  :
(
    (macbook 6)
)
Pstream initialized with:
    floatTransfer      : false
    maxCommsSize       : 0
    nProcsSimpleSum    : 0
    nonBlockingExchange: 0 (tuning: 0)
    exchange algorithm : 0
    commsType          : nonBlocking
    polling iterations : 0
trapFpe: Floating point exception trapping enabled (FOAM_SIGFPE).
fileModificationChecking : Monitoring run-time modified files using timeStampMaster (fileModificationSkew 5, maxFileModificationPolls 20)
allowSystemOperations : Allowing user-supplied system call operations

// * * * * * * * * * * * * * * * * * * * * * * * * * * * * * * * * * * * * * //
Create time

Selecting physicsModel electroModel

Selecting myocardiumSolver bidomainSolver
Selecting electroVerificationModel manufacturedFDABidomainVerifier

Selecting myocardiumSolver bidomainSolver

conductivityIntracellular not found on disk, using value from "/Users/simaocastro/cardiacFoamEPsacred/cardiacFoamsacred/tutorials/bidomainFDA/processor0/../constant/electroProperties/bidomainSolverCoeffs"


conductivityExtracellular not found on disk, using value from "/Users/simaocastro/cardiacFoamEPsacred/cardiacFoamsacred/tutorials/bidomainFDA/processor0/../constant/electroProperties/bidomainSolverCoeffs"

Using verification model manufacturedFDABidomainVerifier.
Running preProcess with fields 3(u1 u2 u3).
Selecting electrophysicsAdvanceScheme staggeredElectrophysicsAdvanceScheme
Time = 0.00224215


PIMPLE: no residual control data found. Calculations will employ 2 corrector loops

DEBUG cell=0 t=0→0.00224215 step=0.00224215 V=0.22986 u1=1.22986 u2=0.999999 u3=0 Iion=0
Selecting ODE solver RKF45
DEBUG cell=0 t=0→0.00224215 step=0.0201793 V=0.22986 u1=1.23236 u2=0.997761 u3=0 Iion=-0.422402
[5] Bidomain phiE reference debug: proc=5 point=(0.125 0.05 0.05) refCell=-1 ownsReference=0
[4] Bidomain phiE reference debug: proc=4 point=(0.125 0.05 0.05) refCell=-1 ownsReference=0
[2] Bidomain phiE reference debug: proc=2 point=(0.125 0.05 0.05) refCell=-1 ownsReference=0
[1] Bidomain phiE reference debug: proc=1 point=(0.125 0.05 0.05) refCell=-1 ownsReference=0
[0] Bidomain phiE reference debug: proc=0 point=(0.125 0.05 0.05) refCell=-1 ownsReference=0
[3] Bidomain phiE reference debug: proc=3 point=(0.125 0.05 0.05) refCell=2 ownsReference=1
Bidomain phiE reference summary: ownerCount=1 ownerProc=3 point=(0.125 0.05 0.05)
PIMPLE: iteration 1
[0] Bidomain phiE solve debug: proc=0 entering solve, refCell=-1 refValue=0 outerIter=1
[3] Bidomain phiE solve debug: proc=3 entering solve, refCell=2 refValue=0 outerIter=1
[4] Bidomain phiE solve debug: proc=4 entering solve, refCell=-1 refValue=0 outerIter=1
[1] Bidomain phiE solve debug: proc=1 entering solve, refCell=-1 refValue=0 outerIter=1
[2] Bidomain phiE solve debug: proc=2 entering solve, refCell=-1 refValue=0 outerIter=1
[5] Bidomain phiE solve debug: proc=5 entering solve, refCell=-1 refValue=0 outerIter=1
DICPCG:  Solving for phiE, Initial residual = 0.0163146, Final residual = 8.18496e-16, No Iterations 115
[0] Bidomain phiE solve debug: proc=0 completed solve, outerIter=1
[4] Bidomain phiE solve debug: proc=4 completed solve, outerIter=1
[3] Bidomain phiE solve debug: proc=3 completed solve, outerIter=1
[2] Bidomain phiE solve debug: proc=2 completed solve, outerIter=1
[1] Bidomain phiE solve debug: proc=1 completed solve, outerIter=1
[5] Bidomain phiE solve debug: proc=5 completed solve, outerIter=1
DICPCG:  Solving for Vm, Initial residual = 0.000492841, Final residual = 1.34453e-16, No Iterations 6
PIMPLE: iteration 2
[1] Bidomain phiE solve debug: proc=1 entering solve, refCell=-1 refValue=0 outerIter=2
[5] Bidomain phiE solve debug: proc=5 entering solve, refCell=-1 refValue=0 outerIter=2
[4] Bidomain phiE solve debug: proc=4 entering solve, refCell=-1 refValue=0 outerIter=2
[3] Bidomain phiE solve debug: proc=3 entering solve, refCell=2 refValue=0 outerIter=2
[0] Bidomain phiE solve debug: proc=0 entering solve, refCell=-1 refValue=0 outerIter=2
[2] Bidomain phiE solve debug: proc=2 entering solve, refCell=-1 refValue=0 outerIter=2
DICPCG:  Solving for phiE, Initial residual = 0.000489159, Final residual = 6.83254e-16, No Iterations 107
[0] Bidomain phiE solve debug: proc=0 completed solve, outerIter=2
[4] Bidomain phiE solve debug: proc=4 completed solve, outerIter=2
[2] Bidomain phiE solve debug: proc=2 completed solve, outerIter=2
[5] Bidomain phiE solve debug: proc=5 completed solve, outerIter=2
[1] Bidomain phiE solve debug: proc=1 completed solve, outerIter=2
[3] Bidomain phiE solve debug: proc=3 completed solve, outerIter=2
DICPCG:  Solving for Vm, Initial residual = 1.03565e-06, Final residual = 6.60568e-17, No Iterations 5
ExecutionTime = 0.01 s  ClockTime = 0 s

Time = 0.0044843

DEBUG cell=0 t=0.00224215→0.0044843 step=0.00224215 V=0.230088 u1=1.23236 u2=0.997761 u3=0 Iion=-0.422402
DEBUG cell=0 t=0.00224215→0.0044843 step=0.0201793 V=0.230088 u1=1.23486 u2=0.995534 u3=0 Iion=-0.422314
[3] Bidomain phiE reference debug: proc=3 point=(0.125 0.05 0.05) refCell=2 ownsReference=1
[4] Bidomain phiE reference debug: proc=4 point=(0.125 0.05 0.05) refCell=-1 ownsReference=0
[0] Bidomain phiE reference debug: proc=0 point=(0.125 0.05 0.05) refCell=-1 ownsReference=0
Bidomain phiE reference summary: ownerCount=1 ownerProc=3 point=(0.125 0.05 0.05)
[1] Bidomain phiE reference debug: proc=1 point=(0.125 0.05 0.05) refCell=-1 ownsReference=0
[2] Bidomain phiE reference debug: proc=2 point=(0.125 0.05 0.05) refCell=-1 ownsReference=0
[5] Bidomain phiE reference debug: proc=5 point=(0.125 0.05 0.05) refCell=-1 ownsReference=0
PIMPLE: iteration 1
[4] Bidomain phiE solve debug: proc=4 entering solve, refCell=-1 refValue=0 outerIter=1
[1] Bidomain phiE solve debug: proc=1 entering solve, refCell=-1 refValue=0 outerIter=1
[3] Bidomain phiE solve debug: proc=3 entering solve, refCell=2 refValue=0 outerIter=1
[5] Bidomain phiE solve debug: proc=5 entering solve, refCell=-1 refValue=0 outerIter=1
[2] Bidomain phiE solve debug: proc=2 entering solve, refCell=-1 refValue=0 outerIter=1
[0] Bidomain phiE solve debug: proc=0 entering solve, refCell=-1 refValue=0 outerIter=1
DICPCG:  Solving for phiE, Initial residual = 1.02791e-06, Final residual = 7.74902e-16, No Iterations 95
[0] Bidomain phiE solve debug: proc=0 completed solve, outerIter=1
[5] Bidomain phiE solve debug: proc=5 completed solve, outerIter=1
[4] Bidomain phiE solve debug: proc=4 completed solve, outerIter=1
[1] Bidomain phiE solve debug: proc=1 completed solve, outerIter=1
[2] Bidomain phiE solve debug: proc=2 completed solve, outerIter=1
[3] Bidomain phiE solve debug: proc=3 completed solve, outerIter=1
DICPCG:  Solving for Vm, Initial residual = 0.000492193, Final residual = 1.13122e-17, No Iterations 6
PIMPLE: iteration 2
[3] Bidomain phiE solve debug: proc=3 entering solve, refCell=2 refValue=0 outerIter=2
[4] Bidomain phiE solve debug: proc=4 entering solve, refCell=-1 refValue=0 outerIter=2
[5] Bidomain phiE solve debug: proc=5 entering solve, refCell=-1 refValue=0 outerIter=2
[0] Bidomain phiE solve debug: proc=0 entering solve, refCell=-1 refValue=0 outerIter=2
[2] Bidomain phiE solve debug: proc=2 entering solve, refCell=-1 refValue=0 outerIter=2
[1] Bidomain phiE solve debug: proc=1 entering solve, refCell=-1 refValue=0 outerIter=2
DICPCG:  Solving for phiE, Initial residual = 0.000488517, Final residual = 6.82311e-16, No Iterations 107
[1] Bidomain phiE solve debug: proc=1 completed solve, outerIter=2
[3] Bidomain phiE solve debug: proc=3 completed solve, outerIter=2
[0] Bidomain phiE solve debug: proc=0 completed solve, outerIter=2
[5] Bidomain phiE solve debug: proc=5 completed solve, outerIter=2
[2] Bidomain phiE solve debug: proc=2 completed solve, outerIter=2
[4] Bidomain phiE solve debug: proc=4 completed solve, outerIter=2
DICPCG:  Solving for Vm, Initial residual = 6.90257e-07, Final residual = 6.44051e-16, No Iterations 4
ExecutionTime = 0.02 s  ClockTime = 0 s

Time = 0.00672645

DEBUG cell=0 t=0.0044843→0.00672645 step=0.00224215 V=0.230315 u1=1.23486 u2=0.995534 u3=0 Iion=-0.422314
DEBUG cell=0 t=0.0044843→0.00672645 step=0.0201793 V=0.230315 u1=1.23736 u2=0.993316 u3=0 Iion=-0.422226
[5] Bidomain phiE reference debug: proc=5 point=(0.125 0.05 0.05) refCell=-1 ownsReference=0
[3] Bidomain phiE reference debug: proc=3 point=(0.125 0.05 0.05) refCell=2 ownsReference=1
[1] Bidomain phiE reference debug: proc=1 point=(0.125 0.05 0.05) refCell=-1 ownsReference=0
[0] Bidomain phiE reference debug: proc=0 point=(0.125 0.05 0.05) refCell=-1 ownsReference=0
Bidomain phiE reference summary: ownerCount=1 ownerProc=3 point=(0.125 0.05 0.05)
PIMPLE: iteration 1
[4] Bidomain phiE reference debug: proc=4 point=(0.125 0.05 0.05) refCell=-1 ownsReference=0
[2] Bidomain phiE reference debug: proc=2 point=(0.125 0.05 0.05) refCell=-1 ownsReference=0
[0] Bidomain phiE solve debug: proc=0 entering solve, refCell=-1 refValue=0 outerIter=1
[3] Bidomain phiE solve debug: proc=3 entering solve, refCell=2 refValue=0 outerIter=1
[1] Bidomain phiE solve debug: proc=1 entering solve, refCell=-1 refValue=0 outerIter=1
[4] Bidomain phiE solve debug: proc=4 entering solve, refCell=-1 refValue=0 outerIter=1
[5] Bidomain phiE solve debug: proc=5 entering solve, refCell=-1 refValue=0 outerIter=1
[2] Bidomain phiE solve debug: proc=2 entering solve, refCell=-1 refValue=0 outerIter=1
DICPCG:  Solving for phiE, Initial residual = 6.85099e-07, Final residual = 7.89764e-16, No Iterations 94
[0] Bidomain phiE solve debug: proc=0 completed solve, outerIter=1
[5] Bidomain phiE solve debug: proc=5 completed solve, outerIter=1
[1] Bidomain phiE solve debug: proc=1 completed solve, outerIter=1
[3] Bidomain phiE solve debug: proc=3 completed solve, outerIter=1
[4] Bidomain phiE solve debug: proc=4 completed solve, outerIter=1
[2] Bidomain phiE solve debug: proc=2 completed solve, outerIter=1
DICPCG:  Solving for Vm, Initial residual = 0.000491038, Final residual = 1.12857e-17, No Iterations 6
PIMPLE: iteration 2
[5] Bidomain phiE solve debug: proc=5 entering solve, refCell=-1 refValue=0 outerIter=2
[4] Bidomain phiE solve debug: proc=4 entering solve, refCell=-1 refValue=0 outerIter=2
[1] Bidomain phiE solve debug: proc=1 entering solve, refCell=-1 refValue=0 outerIter=2
[2] Bidomain phiE solve debug: proc=2 entering solve, refCell=-1 refValue=0 outerIter=2
[0] Bidomain phiE solve debug: proc=0 entering solve, refCell=-1 refValue=0 outerIter=2
[3] Bidomain phiE solve debug: proc=3 entering solve, refCell=2 refValue=0 outerIter=2
DICPCG:  Solving for phiE, Initial residual = 0.00048737, Final residual = 6.80649e-16, No Iterations 107
[0] Bidomain phiE solve debug: proc=0 completed solve, outerIter=2
[1] Bidomain phiE solve debug: proc=1 completed solve, outerIter=2
[2] Bidomain phiE solve debug: proc=2 completed solve, outerIter=2
[4] Bidomain phiE solve debug: proc=4 completed solve, outerIter=2
[5] Bidomain phiE solve debug: proc=5 completed solve, outerIter=2
[3] Bidomain phiE solve debug: proc=3 completed solve, outerIter=2
DICPCG:  Solving for Vm, Initial residual = 6.88638e-07, Final residual = 6.42542e-16, No Iterations 4
ExecutionTime = 0.03 s  ClockTime = 0 s

Time = 0.0089686

DEBUG cell=0 t=0.00672645→0.0089686 step=0.00224215 V=0.230541 u1=1.23736 u2=0.993316 u3=0 Iion=-0.422226
DEBUG cell=0 t=0.00672645→0.0089686 step=0.0201793 V=0.230541 u1=1.23986 u2=0.991108 u3=0 Iion=-0.42214
[4] Bidomain phiE reference debug: proc=4 point=(0.125 0.05 0.05) refCell=-1 ownsReference=0
[3] Bidomain phiE reference debug: proc=3 point=(0.125 0.05 0.05) refCell=2 ownsReference=1
[0] Bidomain phiE reference debug: proc=0 point=(0.125 0.05 0.05) refCell=-1 ownsReference=0
Bidomain phiE reference summary: ownerCount=1 ownerProc=3 point=(0.125 0.05 0.05)
PIMPLE: iteration 1
[5] Bidomain phiE reference debug: proc=5 point=(0.125 0.05 0.05) refCell=-1 ownsReference=0
[1] Bidomain phiE reference debug: proc=1 point=(0.125 0.05 0.05) refCell=-1 ownsReference=0
[2] Bidomain phiE reference debug: proc=2 point=(0.125 0.05 0.05) refCell=-1 ownsReference=0
[1] Bidomain phiE solve debug: proc=1 entering solve, refCell=-1 refValue=0 outerIter=1
[4] Bidomain phiE solve debug: proc=4 entering solve, refCell=-1 refValue=0 outerIter=1
[3] Bidomain phiE solve debug: proc=3 entering solve, refCell=2 refValue=0 outerIter=1
[5] Bidomain phiE solve debug: proc=5 entering solve, refCell=-1 refValue=0 outerIter=1
[0] Bidomain phiE solve debug: proc=0 entering solve, refCell=-1 refValue=0 outerIter=1
[2] Bidomain phiE solve debug: proc=2 entering solve, refCell=-1 refValue=0 outerIter=1
DICPCG:  Solving for phiE, Initial residual = 6.83491e-07, Final residual = 7.87905e-16, No Iterations 94
[0] Bidomain phiE solve debug: proc=0 completed solve, outerIter=1
[5] Bidomain phiE solve debug: proc=5 completed solve, outerIter=1
[4] Bidomain phiE solve debug: proc=4 completed solve, outerIter=1
[1] Bidomain phiE solve debug: proc=1 completed solve, outerIter=1
[3] Bidomain phiE solve debug: proc=3 completed solve, outerIter=1
[2] Bidomain phiE solve debug: proc=2 completed solve, outerIter=1
DICPCG:  Solving for Vm, Initial residual = 0.000489831, Final residual = 1.12579e-17, No Iterations 6
PIMPLE: iteration 2
[4] Bidomain phiE solve debug: proc=4 entering solve, refCell=-1 refValue=0 outerIter=2
[3] Bidomain phiE solve debug: proc=3 entering solve, refCell=2 refValue=0 outerIter=2
[0] Bidomain phiE solve debug: proc=0 entering solve, refCell=-1 refValue=0 outerIter=2
[5] Bidomain phiE solve debug: proc=5 entering solve, refCell=-1 refValue=0 outerIter=2
[2] Bidomain phiE solve debug: proc=2 entering solve, refCell=-1 refValue=0 outerIter=2
[1] Bidomain phiE solve debug: proc=1 entering solve, refCell=-1 refValue=0 outerIter=2
DICPCG:  Solving for phiE, Initial residual = 0.000486172, Final residual = 6.78911e-16, No Iterations 107
[0] Bidomain phiE solve debug: proc=0 completed solve, outerIter=2
[5] Bidomain phiE solve debug: proc=5 completed solve, outerIter=2
[4] Bidomain phiE solve debug: proc=4 completed solve, outerIter=2
[1] Bidomain phiE solve debug: proc=1 completed solve, outerIter=2
[3] Bidomain phiE solve debug: proc=3 completed solve, outerIter=2
[2] Bidomain phiE solve debug: proc=2 completed solve, outerIter=2
DICPCG:  Solving for Vm, Initial residual = 6.86946e-07, Final residual = 6.40966e-16, No Iterations 4
ExecutionTime = 0.04 s  ClockTime = 0 s

Time = 0.0112108

DEBUG cell=0 t=0.0089686→0.0112108 step=0.00224215 V=0.230768 u1=1.23986 u2=0.991108 u3=0 Iion=-0.42214
DEBUG cell=0 t=0.0089686→0.0112108 step=0.0201793 V=0.230768 u1=1.24236 u2=0.98891 u3=0 Iion=-0.422053
[4] Bidomain phiE reference debug: proc=4 point=(0.125 0.05 0.05) refCell=-1 ownsReference=0
[5] Bidomain phiE reference debug: proc=5 point=(0.125 0.05 0.05) refCell=-1 ownsReference=0
[3] Bidomain phiE reference debug: proc=3 point=(0.125 0.05 0.05) refCell=2 ownsReference=1
[0] Bidomain phiE reference debug: proc=0 point=(0.125 0.05 0.05) refCell=-1 ownsReference=0
Bidomain phiE reference summary: ownerCount=1 ownerProc=3 point=(0.125 0.05 0.05)
PIMPLE: iteration 1
[2] Bidomain phiE reference debug: proc=2 point=(0.125 0.05 0.05) refCell=-1 ownsReference=0
[1] Bidomain phiE reference debug: proc=1 point=(0.125 0.05 0.05) refCell=-1 ownsReference=0
[1] Bidomain phiE solve debug: proc=1 entering solve, refCell=-1 refValue=0 outerIter=1
[0] Bidomain phiE solve debug: proc=0 entering solve, refCell=-1 refValue=0 outerIter=1
[2] Bidomain phiE solve debug: proc=2 entering solve, refCell=-1 refValue=0 outerIter=1
[3] Bidomain phiE solve debug: proc=3 entering solve, refCell=2 refValue=0 outerIter=1
[4] Bidomain phiE solve debug: proc=4 entering solve, refCell=-1 refValue=0 outerIter=1
[5] Bidomain phiE solve debug: proc=5 entering solve, refCell=-1 refValue=0 outerIter=1
DICPCG:  Solving for phiE, Initial residual = 6.81813e-07, Final residual = 7.85966e-16, No Iterations 94
[0] Bidomain phiE solve debug: proc=0 completed solve, outerIter=1
[5] Bidomain phiE solve debug: proc=5 completed solve, outerIter=1
[4] Bidomain phiE solve debug: proc=4 completed solve, outerIter=1
[3] Bidomain phiE solve debug: proc=3 completed solve, outerIter=1
[1] Bidomain phiE solve debug: proc=1 completed solve, outerIter=1
[2] Bidomain phiE solve debug: proc=2 completed solve, outerIter=1
DICPCG:  Solving for Vm, Initial residual = 0.000488611, Final residual = 1.12299e-17, No Iterations 6
PIMPLE: iteration 2
[1] Bidomain phiE solve debug: proc=1 entering solve, refCell=-1 refValue=0 outerIter=2
[4] Bidomain phiE solve debug: proc=4 entering solve, refCell=-1 refValue=0 outerIter=2
[5] Bidomain phiE solve debug: proc=5 entering solve, refCell=-1 refValue=0 outerIter=2
[2] Bidomain phiE solve debug: proc=2 entering solve, refCell=-1 refValue=0 outerIter=2
[0] Bidomain phiE solve debug: proc=0 entering solve, refCell=-1 refValue=0 outerIter=2
[3] Bidomain phiE solve debug: proc=3 entering solve, refCell=2 refValue=0 outerIter=2
DICPCG:  Solving for phiE, Initial residual = 0.000484962, Final residual = 6.77154e-16, No Iterations 107
[5] Bidomain phiE solve debug: proc=5 completed solve, outerIter=2
[1] Bidomain phiE solve debug: proc=1 completed solve, outerIter=2
[4] Bidomain phiE solve debug: proc=4 completed solve, outerIter=2
[0] Bidomain phiE solve debug: proc=0 completed solve, outerIter=2
[2] Bidomain phiE solve debug: proc=2 completed solve, outerIter=2
[3] Bidomain phiE solve debug: proc=3 completed solve, outerIter=2
DICPCG:  Solving for Vm, Initial residual = 6.85237e-07, Final residual = 6.39373e-16, No Iterations 4
ExecutionTime = 0.04 s  ClockTime = 0 s

Time = 0.0134529

DEBUG cell=0 t=0.0112108→0.0134529 step=0.00224215 V=0.230994 u1=1.24236 u2=0.98891 u3=0 Iion=-0.422053
DEBUG cell=0 t=0.0112108→0.0134529 step=0.0201793 V=0.230994 u1=1.24486 u2=0.986722 u3=0 Iion=-0.421968
[5] Bidomain phiE reference debug: proc=5 point=(0.125 0.05 0.05) refCell=-1 ownsReference=0
[1] Bidomain phiE reference debug: proc=1 point=(0.125 0.05 0.05) refCell=-1 ownsReference=0
[4] Bidomain phiE reference debug: proc=4 point=(0.125 0.05 0.05) refCell=-1 ownsReference=0
[3] Bidomain phiE reference debug: proc=3 point=(0.125 0.05 0.05) refCell=2 ownsReference=1
[0] Bidomain phiE reference debug: proc=0 point=(0.125 0.05 0.05) refCell=-1 ownsReference=0
Bidomain phiE reference summary: ownerCount=1 ownerProc=3 point=(0.125 0.05 0.05)
PIMPLE: iteration 1
[2] Bidomain phiE reference debug: proc=2 point=(0.125 0.05 0.05) refCell=-1 ownsReference=0
[1] Bidomain phiE solve debug: proc=1 entering solve, refCell=-1 refValue=0 outerIter=1
[5] Bidomain phiE solve debug: proc=5 entering solve, refCell=-1 refValue=0 outerIter=1
[4] Bidomain phiE solve debug: proc=4 entering solve, refCell=-1 refValue=0 outerIter=1
[0] Bidomain phiE solve debug: proc=0 entering solve, refCell=-1 refValue=0 outerIter=1
[2] Bidomain phiE solve debug: proc=2 entering solve, refCell=-1 refValue=0 outerIter=1
[3] Bidomain phiE solve debug: proc=3 entering solve, refCell=2 refValue=0 outerIter=1
DICPCG:  Solving for phiE, Initial residual = 6.80116e-07, Final residual = 7.84006e-16, No Iterations 94
[5] Bidomain phiE solve debug: proc=5 completed solve, outerIter=1
[0] Bidomain phiE solve debug: proc=0 completed solve, outerIter=1
[1] Bidomain phiE solve debug: proc=1 completed solve, outerIter=1
[4] Bidomain phiE solve debug: proc=4 completed solve, outerIter=1
[2] Bidomain phiE solve debug: proc=2 completed solve, outerIter=1
[3] Bidomain phiE solve debug: proc=3 completed solve, outerIter=1
DICPCG:  Solving for Vm, Initial residual = 0.000487391, Final residual = 1.12018e-17, No Iterations 6
PIMPLE: iteration 2
[5] Bidomain phiE solve debug: proc=5 entering solve, refCell=-1 refValue=0 outerIter=2
[1] Bidomain phiE solve debug: proc=1 entering solve, refCell=-1 refValue=0 outerIter=2
[4] Bidomain phiE solve debug: proc=4 entering solve, refCell=-1 refValue=0 outerIter=2
[2] Bidomain phiE solve debug: proc=2 entering solve, refCell=-1 refValue=0 outerIter=2
[3] Bidomain phiE solve debug: proc=3 entering solve, refCell=2 refValue=0 outerIter=2
[0] Bidomain phiE solve debug: proc=0 entering solve, refCell=-1 refValue=0 outerIter=2
DICPCG:  Solving for phiE, Initial residual = 0.00048375, Final residual = 6.75395e-16, No Iterations 107
[3] Bidomain phiE solve debug: proc=3 completed solve, outerIter=2
[5] Bidomain phiE solve debug: proc=5 completed solve, outerIter=2
[2] Bidomain phiE solve debug: proc=2 completed solve, outerIter=2
[4] Bidomain phiE solve debug: proc=4 completed solve, outerIter=2
[0] Bidomain phiE solve debug: proc=0 completed solve, outerIter=2
[1] Bidomain phiE solve debug: proc=1 completed solve, outerIter=2
DICPCG:  Solving for Vm, Initial residual = 6.83526e-07, Final residual = 6.37778e-16, No Iterations 4
ExecutionTime = 0.05 s  ClockTime = 0 s

Time = 0.0156951

DEBUG cell=0 t=0.0134529→0.0156951 step=0.00224215 V=0.23122 u1=1.24486 u2=0.986722 u3=0 Iion=-0.421968
DEBUG cell=0 t=0.0134529→0.0156951 step=0.0201793 V=0.23122 u1=1.24736 u2=0.984543 u3=0 Iion=-0.421883
[5] Bidomain phiE reference debug: proc=5 point=(0.125 0.05 0.05) refCell=-1 ownsReference=0
[4] Bidomain phiE reference debug: proc=4 point=(0.125 0.05 0.05) refCell=-1 ownsReference=0
[3] Bidomain phiE reference debug: proc=3 point=(0.125 0.05 0.05) refCell=2 ownsReference=1
[1] Bidomain phiE reference debug: proc=1 point=(0.125 0.05 0.05) refCell=-1 ownsReference=0
[0] Bidomain phiE reference debug: proc=0 point=(0.125 0.05 0.05) refCell=-1 ownsReference=0
Bidomain phiE reference summary: ownerCount=1 ownerProc=3 point=(0.125 0.05 0.05)
[2] Bidomain phiE reference debug: proc=2 point=(0.125 0.05 0.05) refCell=-1 ownsReference=0
PIMPLE: iteration 1
[5] Bidomain phiE solve debug: proc=5 entering solve, refCell=-1 refValue=0 outerIter=1
[1] Bidomain phiE solve debug: proc=1 entering solve, refCell=-1 refValue=0 outerIter=1
[3] Bidomain phiE solve debug: proc=3 entering solve, refCell=2 refValue=0 outerIter=1
[4] Bidomain phiE solve debug: proc=4 entering solve, refCell=-1 refValue=0 outerIter=1
[0] Bidomain phiE solve debug: proc=0 entering solve, refCell=-1 refValue=0 outerIter=1
[2] Bidomain phiE solve debug: proc=2 entering solve, refCell=-1 refValue=0 outerIter=1
DICPCG:  Solving for phiE, Initial residual = 6.78418e-07, Final residual = 7.82044e-16, No Iterations 94
[0] Bidomain phiE solve debug: proc=0 completed solve, outerIter=1
[5] Bidomain phiE solve debug: proc=5 completed solve, outerIter=1
[4] Bidomain phiE solve debug: proc=4 completed solve, outerIter=1
[3] Bidomain phiE solve debug: proc=3 completed solve, outerIter=1
[2] Bidomain phiE solve debug: proc=2 completed solve, outerIter=1
[1] Bidomain phiE solve debug: proc=1 completed solve, outerIter=1
DICPCG:  Solving for Vm, Initial residual = 0.000486173, Final residual = 1.11738e-17, No Iterations 6
PIMPLE: iteration 2
[5] Bidomain phiE solve debug: proc=5 entering solve, refCell=-1 refValue=0 outerIter=2
[4] Bidomain phiE solve debug: proc=4 entering solve, refCell=-1 refValue=0 outerIter=2
[2] Bidomain phiE solve debug: proc=2 entering solve, refCell=-1 refValue=0 outerIter=2
[0] Bidomain phiE solve debug: proc=0 entering solve, refCell=-1 refValue=0 outerIter=2
[1] Bidomain phiE solve debug: proc=1 entering solve, refCell=-1 refValue=0 outerIter=2
[3] Bidomain phiE solve debug: proc=3 entering solve, refCell=2 refValue=0 outerIter=2
DICPCG:  Solving for phiE, Initial residual = 0.000482542, Final residual = 9.99881e-16, No Iterations 106
[2] Bidomain phiE solve debug: proc=2 completed solve, outerIter=2
[4] Bidomain phiE solve debug: proc=4 completed solve, outerIter=2
[3] Bidomain phiE solve debug: proc=3 completed solve, outerIter=2
[5] Bidomain phiE solve debug: proc=5 completed solve, outerIter=2
[0] Bidomain phiE solve debug: proc=0 completed solve, outerIter=2
[1] Bidomain phiE solve debug: proc=1 completed solve, outerIter=2
DICPCG:  Solving for Vm, Initial residual = 6.81819e-07, Final residual = 6.36189e-16, No Iterations 4
ExecutionTime = 0.06 s  ClockTime = 0 s

Time = 0.0179372

DEBUG cell=0 t=0.0156951→0.0179372 step=0.00224215 V=0.231445 u1=1.24736 u2=0.984543 u3=0 Iion=-0.421883
DEBUG cell=0 t=0.0156951→0.0179372 step=0.0201793 V=0.231445 u1=1.24986 u2=0.982374 u3=0 Iion=-0.421798
[4] Bidomain phiE reference debug: proc=4 point=(0.125 0.05 0.05) refCell=-1 ownsReference=0
[3] Bidomain phiE reference debug: proc=3 point=(0.125 0.05 0.05) refCell=2 ownsReference=1
[5] Bidomain phiE reference debug: proc=5 point=(0.125 0.05 0.05) refCell=-1 ownsReference=0
[2] Bidomain phiE reference debug: proc=2 point=(0.125 0.05 0.05) refCell=-1 ownsReference=0
[1] Bidomain phiE reference debug: proc=1 point=(0.125 0.05 0.05) refCell=-1 ownsReference=0
[0] Bidomain phiE reference debug: proc=0 point=(0.125 0.05 0.05) refCell=-1 ownsReference=0
Bidomain phiE reference summary: ownerCount=1 ownerProc=3 point=(0.125 0.05 0.05)
PIMPLE: iteration 1
[5] Bidomain phiE solve debug: proc=5 entering solve, refCell=-1 refValue=0 outerIter=1
[4] Bidomain phiE solve debug: proc=4 entering solve, refCell=-1 refValue=0 outerIter=1
[2] Bidomain phiE solve debug: proc=2 entering solve, refCell=-1 refValue=0 outerIter=1
[3] Bidomain phiE solve debug: proc=3 entering solve, refCell=2 refValue=0 outerIter=1
[1] Bidomain phiE solve debug: proc=1 entering solve, refCell=-1 refValue=0 outerIter=1
[0] Bidomain phiE solve debug: proc=0 entering solve, refCell=-1 refValue=0 outerIter=1
DICPCG:  Solving for phiE, Initial residual = 6.76724e-07, Final residual = 7.80089e-16, No Iterations 94
[0] Bidomain phiE solve debug: proc=0 completed solve, outerIter=1
[3] Bidomain phiE solve debug: proc=3 completed solve, outerIter=1
[4] Bidomain phiE solve debug: proc=4 completed solve, outerIter=1
[5] Bidomain phiE solve debug: proc=5 completed solve, outerIter=1
[2] Bidomain phiE solve debug: proc=2 completed solve, outerIter=1
[1] Bidomain phiE solve debug: proc=1 completed solve, outerIter=1
DICPCG:  Solving for Vm, Initial residual = 0.000484961, Final residual = 1.11459e-17, No Iterations 6
PIMPLE: iteration 2
[4] Bidomain phiE solve debug: proc=4 entering solve, refCell=-1 refValue=0 outerIter=2
[3] Bidomain phiE solve debug: proc=3 entering solve, refCell=2 refValue=0 outerIter=2
[0] Bidomain phiE solve debug: proc=0 entering solve, refCell=-1 refValue=0 outerIter=2
[2] Bidomain phiE solve debug: proc=2 entering solve, refCell=-1 refValue=0 outerIter=2
[5] Bidomain phiE solve debug: proc=5 entering solve, refCell=-1 refValue=0 outerIter=2
[1] Bidomain phiE solve debug: proc=1 entering solve, refCell=-1 refValue=0 outerIter=2
DICPCG:  Solving for phiE, Initial residual = 0.000481338, Final residual = 9.97258e-16, No Iterations 106
[0] Bidomain phiE solve debug: proc=0 completed solve, outerIter=2
[5] Bidomain phiE solve debug: proc=5 completed solve, outerIter=2
[4] Bidomain phiE solve debug: proc=4 completed solve, outerIter=2
[3] Bidomain phiE solve debug: proc=3 completed solve, outerIter=2
[2] Bidomain phiE solve debug: proc=2 completed solve, outerIter=2
[1] Bidomain phiE solve debug: proc=1 completed solve, outerIter=2
DICPCG:  Solving for Vm, Initial residual = 6.8012e-07, Final residual = 6.34605e-16, No Iterations 4
ExecutionTime = 0.07 s  ClockTime = 0 s

Time = 0.0201793

DEBUG cell=0 t=0.0179372→0.0201793 step=0.00224215 V=0.23167 u1=1.24986 u2=0.982374 u3=0 Iion=-0.421798
DEBUG cell=0 t=0.0179372→0.0201793 step=0.0201793 V=0.23167 u1=1.25236 u2=0.980214 u3=0 Iion=-0.421714
[5] Bidomain phiE reference debug: proc=5 point=(0.125 0.05 0.05) refCell=-1 ownsReference=0
[4] Bidomain phiE reference debug: proc=4 point=(0.125 0.05 0.05) refCell=-1 ownsReference=0
[3] Bidomain phiE reference debug: proc=3 point=(0.125 0.05 0.05) refCell=2 ownsReference=1
[1] Bidomain phiE reference debug: proc=1 point=(0.125 0.05 0.05) refCell=-1 ownsReference=0
[0] Bidomain phiE reference debug: proc=0 point=(0.125 0.05 0.05) refCell=-1 ownsReference=0
Bidomain phiE reference summary: ownerCount=1 ownerProc=3 point=(0.125 0.05 0.05)
PIMPLE: iteration 1
[2] Bidomain phiE reference debug: proc=2 point=(0.125 0.05 0.05) refCell=-1 ownsReference=0
[4] Bidomain phiE solve debug: proc=4 entering solve, refCell=-1 refValue=0 outerIter=1
[2] Bidomain phiE solve debug: proc=2 entering solve, refCell=-1 refValue=0 outerIter=1
[0] Bidomain phiE solve debug: proc=0 entering solve, refCell=-1 refValue=0 outerIter=1
[5] Bidomain phiE solve debug: proc=5 entering solve, refCell=-1 refValue=0 outerIter=1
[1] Bidomain phiE solve debug: proc=1 entering solve, refCell=-1 refValue=0 outerIter=1
[3] Bidomain phiE solve debug: proc=3 entering solve, refCell=2 refValue=0 outerIter=1
DICPCG:  Solving for phiE, Initial residual = 6.75037e-07, Final residual = 7.78141e-16, No Iterations 94
[0] Bidomain phiE solve debug: proc=0 completed solve, outerIter=1
[5] Bidomain phiE solve debug: proc=5 completed solve, outerIter=1
[4] Bidomain phiE solve debug: proc=4 completed solve, outerIter=1
[3] Bidomain phiE solve debug: proc=3 completed solve, outerIter=1
[1] Bidomain phiE solve debug: proc=1 completed solve, outerIter=1
[2] Bidomain phiE solve debug: proc=2 completed solve, outerIter=1
DICPCG:  Solving for Vm, Initial residual = 0.000483753, Final residual = 1.11181e-17, No Iterations 6
PIMPLE: iteration 2
[4] Bidomain phiE solve debug: proc=4 entering solve, refCell=-1 refValue=0 outerIter=2
[5] Bidomain phiE solve debug: proc=5 entering solve, refCell=-1 refValue=0 outerIter=2
[1] Bidomain phiE solve debug: proc=1 entering solve, refCell=-1 refValue=0 outerIter=2
[0] Bidomain phiE solve debug: proc=0 entering solve, refCell=-1 refValue=0 outerIter=2
[3] Bidomain phiE solve debug: proc=3 entering solve, refCell=2 refValue=0 outerIter=2
[2] Bidomain phiE solve debug: proc=2 entering solve, refCell=-1 refValue=0 outerIter=2
DICPCG:  Solving for phiE, Initial residual = 0.00048014, Final residual = 9.94647e-16, No Iterations 106
[2] Bidomain phiE solve debug: proc=2 completed solve, outerIter=2
[1] Bidomain phiE solve debug: proc=1 completed solve, outerIter=2
[3] Bidomain phiE solve debug: proc=3 completed solve, outerIter=2
[5] Bidomain phiE solve debug: proc=5 completed solve, outerIter=2
[4] Bidomain phiE solve debug: proc=4 completed solve, outerIter=2
[0] Bidomain phiE solve debug: proc=0 completed solve, outerIter=2
DICPCG:  Solving for Vm, Initial residual = 6.78427e-07, Final residual = 6.33028e-16, No Iterations 4
ExecutionTime = 0.07 s  ClockTime = 0 s

Time = 0.0224215

DEBUG cell=0 t=0.0201793→0.0224215 step=0.00224215 V=0.231895 u1=1.25236 u2=0.980214 u3=0 Iion=-0.421714
DEBUG cell=0 t=0.0201793→0.0224215 step=0.0201793 V=0.231895 u1=1.25486 u2=0.978063 u3=0 Iion=-0.421631
[5] Bidomain phiE reference debug: proc=5 point=(0.125 0.05 0.05) refCell=-1 ownsReference=0
[1] Bidomain phiE reference debug: proc=1 point=(0.125 0.05 0.05) refCell=-1 ownsReference=0
[4] Bidomain phiE reference debug: proc=4 point=(0.125 0.05 0.05) refCell=-1 ownsReference=0
[2] Bidomain phiE reference debug: proc=2 point=(0.125 0.05 0.05) refCell=-1 ownsReference=0
[3] Bidomain phiE reference debug: proc=3 point=(0.125 0.05 0.05) refCell=2 ownsReference=1
[0] Bidomain phiE reference debug: proc=0 point=(0.125 0.05 0.05) refCell=-1 ownsReference=0
Bidomain phiE reference summary: ownerCount=1 ownerProc=3 point=(0.125 0.05 0.05)
PIMPLE: iteration 1
[1] Bidomain phiE solve debug: proc=1 entering solve, refCell=-1 refValue=0 outerIter=1
[2] Bidomain phiE solve debug: proc=2 entering solve, refCell=-1 refValue=0 outerIter=1
[4] Bidomain phiE solve debug: proc=4 entering solve, refCell=-1 refValue=0 outerIter=1
[5] Bidomain phiE solve debug: proc=5 entering solve, refCell=-1 refValue=0 outerIter=1
[0] Bidomain phiE solve debug: proc=0 entering solve, refCell=-1 refValue=0 outerIter=1
[3] Bidomain phiE solve debug: proc=3 entering solve, refCell=2 refValue=0 outerIter=1
DICPCG:  Solving for phiE, Initial residual = 6.73357e-07, Final residual = 7.76201e-16, No Iterations 94
[5] Bidomain phiE solve debug: proc=5 completed solve, outerIter=1
[1] Bidomain phiE solve debug: proc=1 completed solve, outerIter=1
[0] Bidomain phiE solve debug: proc=0 completed solve, outerIter=1
[2] Bidomain phiE solve debug: proc=2 completed solve, outerIter=1
[4] Bidomain phiE solve debug: proc=4 completed solve, outerIter=1
[3] Bidomain phiE solve debug: proc=3 completed solve, outerIter=1
DICPCG:  Solving for Vm, Initial residual = 0.000482551, Final residual = 1.10905e-17, No Iterations 6
PIMPLE: iteration 2
[1] Bidomain phiE solve debug: proc=1 entering solve, refCell=-1 refValue=0 outerIter=2
[4] Bidomain phiE solve debug: proc=4 entering solve, refCell=-1 refValue=0 outerIter=2
[2] Bidomain phiE solve debug: proc=2 entering solve, refCell=-1 refValue=0 outerIter=2
[5] Bidomain phiE solve debug: proc=5 entering solve, refCell=-1 refValue=0 outerIter=2
[0] Bidomain phiE solve debug: proc=0 entering solve, refCell=-1 refValue=0 outerIter=2
[3] Bidomain phiE solve debug: proc=3 entering solve, refCell=2 refValue=0 outerIter=2
DICPCG:  Solving for phiE, Initial residual = 0.000478947, Final residual = 9.92046e-16, No Iterations 106
[4] Bidomain phiE solve debug: proc=4 completed solve, outerIter=2
[3] Bidomain phiE solve debug: proc=3 completed solve, outerIter=2
[1] Bidomain phiE solve debug: proc=1 completed solve, outerIter=2
[5] Bidomain phiE solve debug: proc=5 completed solve, outerIter=2
[0] Bidomain phiE solve debug: proc=0 completed solve, outerIter=2
[2] Bidomain phiE solve debug: proc=2 completed solve, outerIter=2
DICPCG:  Solving for Vm, Initial residual = 6.76742e-07, Final residual = 6.31457e-16, No Iterations 4
ExecutionTime = 0.08 s  ClockTime = 0 s

Time = 0.0246636

DEBUG cell=0 t=0.0224215→0.0246636 step=0.00224215 V=0.232119 u1=1.25486 u2=0.978063 u3=0 Iion=-0.421631
DEBUG cell=0 t=0.0224215→0.0246636 step=0.0201793 V=0.232119 u1=1.25735 u2=0.975922 u3=0 Iion=-0.421548
[4] Bidomain phiE reference debug: proc=4 point=(0.125 0.05 0.05) refCell=-1 ownsReference=0
[3] Bidomain phiE reference debug: proc=3 point=(0.125 0.05 0.05) refCell=2 ownsReference=1
[5] Bidomain phiE reference debug: proc=5 point=(0.125 0.05 0.05) refCell=-1 ownsReference=0
[1] Bidomain phiE reference debug: proc=1 point=(0.125 0.05 0.05) refCell=-1 ownsReference=0
[0] Bidomain phiE reference debug: proc=0 point=(0.125 0.05 0.05) refCell=-1 ownsReference=0
Bidomain phiE reference summary: ownerCount=1 ownerProc=3 point=(0.125 0.05 0.05)
PIMPLE: iteration 1
[2] Bidomain phiE reference debug: proc=2 point=(0.125 0.05 0.05) refCell=-1 ownsReference=0
[4] Bidomain phiE solve debug: proc=4 entering solve, refCell=-1 refValue=0 outerIter=1
[1] Bidomain phiE solve debug: proc=1 entering solve, refCell=-1 refValue=0 outerIter=1
[3] Bidomain phiE solve debug: proc=3 entering solve, refCell=2 refValue=0 outerIter=1
[2] Bidomain phiE solve debug: proc=2 entering solve, refCell=-1 refValue=0 outerIter=1
[0] Bidomain phiE solve debug: proc=0 entering solve, refCell=-1 refValue=0 outerIter=1
[5] Bidomain phiE solve debug: proc=5 entering solve, refCell=-1 refValue=0 outerIter=1
DICPCG:  Solving for phiE, Initial residual = 6.71685e-07, Final residual = 7.74271e-16, No Iterations 94
[0] Bidomain phiE solve debug: proc=0 completed solve, outerIter=1
[1] Bidomain phiE solve debug: proc=1 completed solve, outerIter=1
[2] Bidomain phiE solve debug: proc=2 completed solve, outerIter=1
[3] Bidomain phiE solve debug: proc=3 completed solve, outerIter=1
[5] Bidomain phiE solve debug: proc=5 completed solve, outerIter=1
[4] Bidomain phiE solve debug: proc=4 completed solve, outerIter=1
DICPCG:  Solving for Vm, Initial residual = 0.000481354, Final residual = 1.10629e-17, No Iterations 6
PIMPLE: iteration 2
[5] Bidomain phiE solve debug: proc=5 entering solve, refCell=-1 refValue=0 outerIter=2
[4] Bidomain phiE solve debug: proc=4 entering solve, refCell=-1 refValue=0 outerIter=2
[1] Bidomain phiE solve debug: proc=1 entering solve, refCell=-1 refValue=0 outerIter=2
[2] Bidomain phiE solve debug: proc=2 entering solve, refCell=-1 refValue=0 outerIter=2
[0] Bidomain phiE solve debug: proc=0 entering solve, refCell=-1 refValue=0 outerIter=2
[3] Bidomain phiE solve debug: proc=3 entering solve, refCell=2 refValue=0 outerIter=2
DICPCG:  Solving for phiE, Initial residual = 0.000477759, Final residual = 9.89458e-16, No Iterations 106
[0] Bidomain phiE solve debug: proc=0 completed solve, outerIter=2
[5] Bidomain phiE solve debug: proc=5 completed solve, outerIter=2
[1] Bidomain phiE solve debug: proc=1 completed solve, outerIter=2
[2] Bidomain phiE solve debug: proc=2 completed solve, outerIter=2
[3] Bidomain phiE solve debug: proc=3 completed solve, outerIter=2
[4] Bidomain phiE solve debug: proc=4 completed solve, outerIter=2
DICPCG:  Solving for Vm, Initial residual = 6.75064e-07, Final residual = 6.29894e-16, No Iterations 4
ExecutionTime = 0.09 s  ClockTime = 0 s

Time = 0.0269058

DEBUG cell=0 t=0.0246636→0.0269058 step=0.00224215 V=0.232343 u1=1.25735 u2=0.975922 u3=0 Iion=-0.421548
DEBUG cell=0 t=0.0246636→0.0269058 step=0.0201793 V=0.232343 u1=1.25985 u2=0.973791 u3=0 Iion=-0.421466
[1] Bidomain phiE reference debug: proc=1 point=(0.125 0.05 0.05) refCell=-1 ownsReference=0
[4] Bidomain phiE reference debug: proc=4 point=(0.125 0.05 0.05) refCell=-1 ownsReference=0
[3] Bidomain phiE reference debug: proc=3 point=(0.125 0.05 0.05) refCell=2 ownsReference=1
[0] Bidomain phiE reference debug: proc=0 point=(0.125 0.05 0.05) refCell=-1 ownsReference=0
Bidomain phiE reference summary: ownerCount=1 ownerProc=3 point=(0.125 0.05 0.05)
PIMPLE: iteration 1
[2] Bidomain phiE reference debug: proc=2 point=(0.125 0.05 0.05) refCell=-1 ownsReference=0
[5] Bidomain phiE reference debug: proc=5 point=(0.125 0.05 0.05) refCell=-1 ownsReference=0
[0] Bidomain phiE solve debug: proc=0 entering solve, refCell=-1 refValue=0 outerIter=1
[4] Bidomain phiE solve debug: proc=4 entering solve, refCell=-1 refValue=0 outerIter=1
[3] Bidomain phiE solve debug: proc=3 entering solve, refCell=2 refValue=0 outerIter=1
[2] Bidomain phiE solve debug: proc=2 entering solve, refCell=-1 refValue=0 outerIter=1
[1] Bidomain phiE solve debug: proc=1 entering solve, refCell=-1 refValue=0 outerIter=1
[5] Bidomain phiE solve debug: proc=5 entering solve, refCell=-1 refValue=0 outerIter=1
DICPCG:  Solving for phiE, Initial residual = 6.70019e-07, Final residual = 7.72349e-16, No Iterations 94
[0] Bidomain phiE solve debug: proc=0 completed solve, outerIter=1
[3] Bidomain phiE solve debug: proc=3 completed solve, outerIter=1
[4] Bidomain phiE solve debug: proc=4 completed solve, outerIter=1
[5] Bidomain phiE solve debug: proc=5 completed solve, outerIter=1
[2] Bidomain phiE solve debug: proc=2 completed solve, outerIter=1
[1] Bidomain phiE solve debug: proc=1 completed solve, outerIter=1
DICPCG:  Solving for Vm, Initial residual = 0.000480162, Final residual = 1.10355e-17, No Iterations 6
PIMPLE: iteration 2
[2] Bidomain phiE solve debug: proc=2 entering solve, refCell=-1 refValue=0 outerIter=2
[0] Bidomain phiE solve debug: proc=0 entering solve, refCell=-1 refValue=0 outerIter=2
[1] Bidomain phiE solve debug: proc=1 entering solve, refCell=-1 refValue=0 outerIter=2
[5] Bidomain phiE solve debug: proc=5 entering solve, refCell=-1 refValue=0 outerIter=2
[3] Bidomain phiE solve debug: proc=3 entering solve, refCell=2 refValue=0 outerIter=2
[4] Bidomain phiE solve debug: proc=4 entering solve, refCell=-1 refValue=0 outerIter=2
DICPCG:  Solving for phiE, Initial residual = 0.000476576, Final residual = 9.86881e-16, No Iterations 106
[0] Bidomain phiE solve debug: proc=0 completed solve, outerIter=2
[5] Bidomain phiE solve debug: proc=5 completed solve, outerIter=2
[2] Bidomain phiE solve debug: proc=2 completed solve, outerIter=2
[1] Bidomain phiE solve debug: proc=1 completed solve, outerIter=2
[3] Bidomain phiE solve debug: proc=3 completed solve, outerIter=2
[4] Bidomain phiE solve debug: proc=4 completed solve, outerIter=2
DICPCG:  Solving for Vm, Initial residual = 6.73393e-07, Final residual = 6.28337e-16, No Iterations 4
ExecutionTime = 0.1 s  ClockTime = 0 s

Time = 0.0291479

DEBUG cell=0 t=0.0269058→0.0291479 step=0.00224215 V=0.232567 u1=1.25985 u2=0.973791 u3=0 Iion=-0.421466
DEBUG cell=0 t=0.0269058→0.0291479 step=0.0201793 V=0.232567 u1=1.26235 u2=0.971668 u3=0 Iion=-0.421385
[5] Bidomain phiE reference debug: proc=5 point=(0.125 0.05 0.05) refCell=-1 ownsReference=0
[0] Bidomain phiE reference debug: proc=0 point=(0.125 0.05 0.05) refCell=-1 ownsReference=0
Bidomain phiE reference summary: ownerCount=1 ownerProc=3 point=(0.125 0.05 0.05)
PIMPLE: iteration 1
[4] Bidomain phiE reference debug: proc=4 point=(0.125 0.05 0.05) refCell=-1 ownsReference=0
[3] Bidomain phiE reference debug: proc=3 point=(0.125 0.05 0.05) refCell=2 ownsReference=1
[1] Bidomain phiE reference debug: proc=1 point=(0.125 0.05 0.05) refCell=-1 ownsReference=0
[2] Bidomain phiE reference debug: proc=2 point=(0.125 0.05 0.05) refCell=-1 ownsReference=0
[5] Bidomain phiE solve debug: proc=5 entering solve, refCell=-1 refValue=0 outerIter=1
[2] Bidomain phiE solve debug: proc=2 entering solve, refCell=-1 refValue=0 outerIter=1
[1] Bidomain phiE solve debug: proc=1 entering solve, refCell=-1 refValue=0 outerIter=1
[4] Bidomain phiE solve debug: proc=4 entering solve, refCell=-1 refValue=0 outerIter=1
[3] Bidomain phiE solve debug: proc=3 entering solve, refCell=2 refValue=0 outerIter=1
[0] Bidomain phiE solve debug: proc=0 entering solve, refCell=-1 refValue=0 outerIter=1
DICPCG:  Solving for phiE, Initial residual = 6.68361e-07, Final residual = 7.70436e-16, No Iterations 94
[5] Bidomain phiE solve debug: proc=5 completed solve, outerIter=1
[2] Bidomain phiE solve debug: proc=2 completed solve, outerIter=1
[1] Bidomain phiE solve debug: proc=1 completed solve, outerIter=1
[3] Bidomain phiE solve debug: proc=3 completed solve, outerIter=1
[4] Bidomain phiE solve debug: proc=4 completed solve, outerIter=1
[0] Bidomain phiE solve debug: proc=0 completed solve, outerIter=1
DICPCG:  Solving for Vm, Initial residual = 0.000478976, Final residual = 1.10082e-17, No Iterations 6
PIMPLE: iteration 2
[5] Bidomain phiE solve debug: proc=5 entering solve, refCell=-1 refValue=0 outerIter=2
[2] Bidomain phiE solve debug: proc=2 entering solve, refCell=-1 refValue=0 outerIter=2
[1] Bidomain phiE solve debug: proc=1 entering solve, refCell=-1 refValue=0 outerIter=2
[3] Bidomain phiE solve debug: proc=3 entering solve, refCell=2 refValue=0 outerIter=2
[4] Bidomain phiE solve debug: proc=4 entering solve, refCell=-1 refValue=0 outerIter=2
[0] Bidomain phiE solve debug: proc=0 entering solve, refCell=-1 refValue=0 outerIter=2
DICPCG:  Solving for phiE, Initial residual = 0.000475398, Final residual = 9.84315e-16, No Iterations 106
[0] Bidomain phiE solve debug: proc=0 completed solve, outerIter=2
[1] Bidomain phiE solve debug: proc=1 completed solve, outerIter=2
[3] Bidomain phiE solve debug: proc=3 completed solve, outerIter=2
[2] Bidomain phiE solve debug: proc=2 completed solve, outerIter=2
[5] Bidomain phiE solve debug: proc=5 completed solve, outerIter=2
[4] Bidomain phiE solve debug: proc=4 completed solve, outerIter=2
DICPCG:  Solving for Vm, Initial residual = 6.7173e-07, Final residual = 6.26787e-16, No Iterations 4
ExecutionTime = 0.1 s  ClockTime = 0 s

Time = 0.0313901

DEBUG cell=0 t=0.0291479→0.0313901 step=0.00224215 V=0.23279 u1=1.26235 u2=0.971668 u3=0 Iion=-0.421385
DEBUG cell=0 t=0.0291479→0.0313901 step=0.0201793 V=0.23279 u1=1.26485 u2=0.969555 u3=0 Iion=-0.421304
[4] Bidomain phiE reference debug: proc=4 point=(0.125 0.05 0.05) refCell=-1 ownsReference=0
[3] Bidomain phiE reference debug: proc=3 point=(0.125 0.05 0.05) refCell=2 ownsReference=1
[1] Bidomain phiE reference debug: proc=1 point=(0.125 0.05 0.05) refCell=-1 ownsReference=0
[0] Bidomain phiE reference debug: proc=0 point=(0.125 0.05 0.05) refCell=-1 ownsReference=0
Bidomain phiE reference summary: ownerCount=1 ownerProc=3 point=(0.125 0.05 0.05)
PIMPLE: iteration 1
[2] Bidomain phiE reference debug: proc=2 point=(0.125 0.05 0.05) refCell=-1 ownsReference=0
[5] Bidomain phiE reference debug: proc=5 point=(0.125 0.05 0.05) refCell=-1 ownsReference=0
[4] Bidomain phiE solve debug: proc=4 entering solve, refCell=-1 refValue=0 outerIter=1
[0] Bidomain phiE solve debug: proc=0 entering solve, refCell=-1 refValue=0 outerIter=1
[5] Bidomain phiE solve debug: proc=5 entering solve, refCell=-1 refValue=0 outerIter=1
[2] Bidomain phiE solve debug: proc=2 entering solve, refCell=-1 refValue=0 outerIter=1
[1] Bidomain phiE solve debug: proc=1 entering solve, refCell=-1 refValue=0 outerIter=1
[3] Bidomain phiE solve debug: proc=3 entering solve, refCell=2 refValue=0 outerIter=1
DICPCG:  Solving for phiE, Initial residual = 6.66711e-07, Final residual = 7.68533e-16, No Iterations 94
[0] Bidomain phiE solve debug: proc=0 completed solve, outerIter=1
[5] Bidomain phiE solve debug: proc=5 completed solve, outerIter=1
[4] Bidomain phiE solve debug: proc=4 completed solve, outerIter=1
[1] Bidomain phiE solve debug: proc=1 completed solve, outerIter=1
[2] Bidomain phiE solve debug: proc=2 completed solve, outerIter=1
[3] Bidomain phiE solve debug: proc=3 completed solve, outerIter=1
DICPCG:  Solving for Vm, Initial residual = 0.000477794, Final residual = 1.09811e-17, No Iterations 6
PIMPLE: iteration 2
[5] Bidomain phiE solve debug: proc=5 entering solve, refCell=-1 refValue=0 outerIter=2
[4] Bidomain phiE solve debug: proc=4 entering solve, refCell=-1 refValue=0 outerIter=2
[1] Bidomain phiE solve debug: proc=1 entering solve, refCell=-1 refValue=0 outerIter=2
[2] Bidomain phiE solve debug: proc=2 entering solve, refCell=-1 refValue=0 outerIter=2
[3] Bidomain phiE solve debug: proc=3 entering solve, refCell=2 refValue=0 outerIter=2
[0] Bidomain phiE solve debug: proc=0 entering solve, refCell=-1 refValue=0 outerIter=2
DICPCG:  Solving for phiE, Initial residual = 0.000474225, Final residual = 9.81761e-16, No Iterations 106
[0] Bidomain phiE solve debug: proc=0 completed solve, outerIter=2
[5] Bidomain phiE solve debug: proc=5 completed solve, outerIter=2
[4] Bidomain phiE solve debug: proc=4 completed solve, outerIter=2
[3] Bidomain phiE solve debug: proc=3 completed solve, outerIter=2
[1] Bidomain phiE solve debug: proc=1 completed solve, outerIter=2
[2] Bidomain phiE solve debug: proc=2 completed solve, outerIter=2
DICPCG:  Solving for Vm, Initial residual = 6.70074e-07, Final residual = 6.25244e-16, No Iterations 4
ExecutionTime = 0.11 s  ClockTime = 0 s

Time = 0.0336322

DEBUG cell=0 t=0.0313901→0.0336322 step=0.00224215 V=0.233013 u1=1.26485 u2=0.969555 u3=0 Iion=-0.421304
DEBUG cell=0 t=0.0313901→0.0336322 step=0.0201793 V=0.233013 u1=1.26735 u2=0.96745 u3=0 Iion=-0.421223
[5] Bidomain phiE reference debug: proc=5 point=(0.125 0.05 0.05) refCell=-1 ownsReference=0
[4] Bidomain phiE reference debug: proc=4 point=(0.125 0.05 0.05) refCell=-1 ownsReference=0
[3] Bidomain phiE reference debug: proc=3 point=(0.125 0.05 0.05) refCell=2 ownsReference=1
[1] Bidomain phiE reference debug: proc=1 point=(0.125 0.05 0.05) refCell=-1 ownsReference=0
[0] Bidomain phiE reference debug: proc=0 point=(0.125 0.05 0.05) refCell=-1 ownsReference=0
Bidomain phiE reference summary: ownerCount=1 ownerProc=3 point=(0.125 0.05 0.05)
PIMPLE: iteration 1
[2] Bidomain phiE reference debug: proc=2 point=(0.125 0.05 0.05) refCell=-1 ownsReference=0
[5] Bidomain phiE solve debug: proc=5 entering solve, refCell=-1 refValue=0 outerIter=1
[0] Bidomain phiE solve debug: proc=0 entering solve, refCell=-1 refValue=0 outerIter=1
[1] Bidomain phiE solve debug: proc=1 entering solve, refCell=-1 refValue=0 outerIter=1
[2] Bidomain phiE solve debug: proc=2 entering solve, refCell=-1 refValue=0 outerIter=1
[4] Bidomain phiE solve debug: proc=4 entering solve, refCell=-1 refValue=0 outerIter=1
[3] Bidomain phiE solve debug: proc=3 entering solve, refCell=2 refValue=0 outerIter=1
DICPCG:  Solving for phiE, Initial residual = 6.65067e-07, Final residual = 7.66638e-16, No Iterations 94
[0] Bidomain phiE solve debug: proc=0 completed solve, outerIter=1
[2] Bidomain phiE solve debug: proc=2 completed solve, outerIter=1
[5] Bidomain phiE solve debug: proc=5 completed solve, outerIter=1
[1] Bidomain phiE solve debug: proc=1 completed solve, outerIter=1
[3] Bidomain phiE solve debug: proc=3 completed solve, outerIter=1
[4] Bidomain phiE solve debug: proc=4 completed solve, outerIter=1
DICPCG:  Solving for Vm, Initial residual = 0.000476618, Final residual = 1.0954e-17, No Iterations 6
PIMPLE: iteration 2
[5] Bidomain phiE solve debug: proc=5 entering solve, refCell=-1 refValue=0 outerIter=2
[1] Bidomain phiE solve debug: proc=1 entering solve, refCell=-1 refValue=0 outerIter=2
[2] Bidomain phiE solve debug: proc=2 entering solve, refCell=-1 refValue=0 outerIter=2
[4] Bidomain phiE solve debug: proc=4 entering solve, refCell=-1 refValue=0 outerIter=2
[0] Bidomain phiE solve debug: proc=0 entering solve, refCell=-1 refValue=0 outerIter=2
[3] Bidomain phiE solve debug: proc=3 entering solve, refCell=2 refValue=0 outerIter=2
DICPCG:  Solving for phiE, Initial residual = 0.000473058, Final residual = 9.79218e-16, No Iterations 106
[0] Bidomain phiE solve debug: proc=0 completed solve, outerIter=2
[5] Bidomain phiE solve debug: proc=5 completed solve, outerIter=2
[1] Bidomain phiE solve debug: proc=1 completed solve, outerIter=2
[4] Bidomain phiE solve debug: proc=4 completed solve, outerIter=2
[2] Bidomain phiE solve debug: proc=2 completed solve, outerIter=2
[3] Bidomain phiE solve debug: proc=3 completed solve, outerIter=2
DICPCG:  Solving for Vm, Initial residual = 6.68425e-07, Final residual = 6.23707e-16, No Iterations 4
ExecutionTime = 0.12 s  ClockTime = 0 s

Time = 0.0358744

DEBUG cell=0 t=0.0336322→0.0358744 step=0.00224215 V=0.233236 u1=1.26735 u2=0.96745 u3=0 Iion=-0.421223
DEBUG cell=0 t=0.0336322→0.0358744 step=0.0201793 V=0.233236 u1=1.26984 u2=0.965355 u3=0 Iion=-0.421143
[4] Bidomain phiE reference debug: proc=4 point=(0.125 0.05 0.05) refCell=-1 ownsReference=0
[3] Bidomain phiE reference debug: proc=3 point=(0.125 0.05 0.05) refCell=2 ownsReference=1
[1] Bidomain phiE reference debug: proc=1 point=(0.125 0.05 0.05) refCell=-1 ownsReference=0
[5] Bidomain phiE reference debug: proc=5 point=(0.125 0.05 0.05) refCell=-1 ownsReference=0
[2] Bidomain phiE reference debug: proc=2 point=(0.125 0.05 0.05) refCell=-1 ownsReference=0
[0] Bidomain phiE reference debug: proc=0 point=(0.125 0.05 0.05) refCell=-1 ownsReference=0
Bidomain phiE reference summary: ownerCount=1 ownerProc=3 point=(0.125 0.05 0.05)
PIMPLE: iteration 1
[4] Bidomain phiE solve debug: proc=4 entering solve, refCell=-1 refValue=0 outerIter=1
[5] Bidomain phiE solve debug: proc=5 entering solve, refCell=-1 refValue=0 outerIter=1
[1] Bidomain phiE solve debug: proc=1 entering solve, refCell=-1 refValue=0 outerIter=1
[3] Bidomain phiE solve debug: proc=3 entering solve, refCell=2 refValue=0 outerIter=1
[2] Bidomain phiE solve debug: proc=2 entering solve, refCell=-1 refValue=0 outerIter=1
[0] Bidomain phiE solve debug: proc=0 entering solve, refCell=-1 refValue=0 outerIter=1
DICPCG:  Solving for phiE, Initial residual = 6.6343e-07, Final residual = 7.64753e-16, No Iterations 94
[5] Bidomain phiE solve debug: proc=5 completed solve, outerIter=1
[4] Bidomain phiE solve debug: proc=4 completed solve, outerIter=1
[3] Bidomain phiE solve debug: proc=3 completed solve, outerIter=1
[1] Bidomain phiE solve debug: proc=1 completed solve, outerIter=1
[0] Bidomain phiE solve debug: proc=0 completed solve, outerIter=1
[2] Bidomain phiE solve debug: proc=2 completed solve, outerIter=1
DICPCG:  Solving for Vm, Initial residual = 0.000475447, Final residual = 1.09271e-17, No Iterations 6
PIMPLE: iteration 2
[4] Bidomain phiE solve debug: proc=4 entering solve, refCell=-1 refValue=0 outerIter=2
[5] Bidomain phiE solve debug: proc=5 entering solve, refCell=-1 refValue=0 outerIter=2
[1] Bidomain phiE solve debug: proc=1 entering solve, refCell=-1 refValue=0 outerIter=2
[3] Bidomain phiE solve debug: proc=3 entering solve, refCell=2 refValue=0 outerIter=2
[2] Bidomain phiE solve debug: proc=2 entering solve, refCell=-1 refValue=0 outerIter=2
[0] Bidomain phiE solve debug: proc=0 entering solve, refCell=-1 refValue=0 outerIter=2
DICPCG:  Solving for phiE, Initial residual = 0.000471895, Final residual = 9.76686e-16, No Iterations 106
[0] Bidomain phiE solve debug: proc=0 completed solve, outerIter=2
[2] Bidomain phiE solve debug: proc=2 completed solve, outerIter=2
[1] Bidomain phiE solve debug: proc=1 completed solve, outerIter=2
[4] Bidomain phiE solve debug: proc=4 completed solve, outerIter=2
[5] Bidomain phiE solve debug: proc=5 completed solve, outerIter=2
[3] Bidomain phiE solve debug: proc=3 completed solve, outerIter=2
DICPCG:  Solving for Vm, Initial residual = 6.66783e-07, Final residual = 6.22177e-16, No Iterations 4
ExecutionTime = 0.13 s  ClockTime = 0 s

Time = 0.0381165

DEBUG cell=0 t=0.0358744→0.0381165 step=0.00224215 V=0.233458 u1=1.26984 u2=0.965355 u3=0 Iion=-0.421143
DEBUG cell=0 t=0.0358744→0.0381165 step=0.0201793 V=0.233458 u1=1.27234 u2=0.963269 u3=0 Iion=-0.421064
[1] Bidomain phiE reference debug: proc=1 point=(0.125 0.05 0.05) refCell=-1 ownsReference=0
[4] Bidomain phiE reference debug: proc=4 point=(0.125 0.05 0.05) refCell=-1 ownsReference=0
[2] Bidomain phiE reference debug: proc=2 point=(0.125 0.05 0.05) refCell=-1 ownsReference=0
[0] Bidomain phiE reference debug: proc=0 point=(0.125 0.05 0.05) refCell=-1 ownsReference=0
Bidomain phiE reference summary: ownerCount=1 ownerProc=3 point=(0.125 0.05 0.05)
[5] Bidomain phiE reference debug: proc=5 point=(0.125 0.05 0.05) refCell=-1 ownsReference=0
[3] Bidomain phiE reference debug: proc=3 point=(0.125 0.05 0.05) refCell=2 ownsReference=1
PIMPLE: iteration 1
[1] Bidomain phiE solve debug: proc=1 entering solve, refCell=-1 refValue=0 outerIter=1
[4] Bidomain phiE solve debug: proc=4 entering solve, refCell=-1 refValue=0 outerIter=1
[5] Bidomain phiE solve debug: proc=5 entering solve, refCell=-1 refValue=0 outerIter=1
[2] Bidomain phiE solve debug: proc=2 entering solve, refCell=-1 refValue=0 outerIter=1
[0] Bidomain phiE solve debug: proc=0 entering solve, refCell=-1 refValue=0 outerIter=1
[3] Bidomain phiE solve debug: proc=3 entering solve, refCell=2 refValue=0 outerIter=1
DICPCG:  Solving for phiE, Initial residual = 6.61801e-07, Final residual = 7.62875e-16, No Iterations 94
[0] Bidomain phiE solve debug: proc=0 completed solve, outerIter=1
[4] Bidomain phiE solve debug: proc=4 completed solve, outerIter=1
[1] Bidomain phiE solve debug: proc=1 completed solve, outerIter=1
[3] Bidomain phiE solve debug: proc=3 completed solve, outerIter=1
[5] Bidomain phiE solve debug: proc=5 completed solve, outerIter=1
[2] Bidomain phiE solve debug: proc=2 completed solve, outerIter=1
DICPCG:  Solving for Vm, Initial residual = 0.00047428, Final residual = 1.09002e-17, No Iterations 6
PIMPLE: iteration 2
[1] Bidomain phiE solve debug: proc=1 entering solve, refCell=-1 refValue=0 outerIter=2
[4] Bidomain phiE solve debug: proc=4 entering solve, refCell=-1 refValue=0 outerIter=2
[2] Bidomain phiE solve debug: proc=2 entering solve, refCell=-1 refValue=0 outerIter=2
[3] Bidomain phiE solve debug: proc=3 entering solve, refCell=2 refValue=0 outerIter=2
[5] Bidomain phiE solve debug: proc=5 entering solve, refCell=-1 refValue=0 outerIter=2
[0] Bidomain phiE solve debug: proc=0 entering solve, refCell=-1 refValue=0 outerIter=2
DICPCG:  Solving for phiE, Initial residual = 0.000470738, Final residual = 9.74165e-16, No Iterations 106
[0] Bidomain phiE solve debug: proc=0 completed solve, outerIter=2
[5] Bidomain phiE solve debug: proc=5 completed solve, outerIter=2
[4] Bidomain phiE solve debug: proc=4 completed solve, outerIter=2
[1] Bidomain phiE solve debug: proc=1 completed solve, outerIter=2
[2] Bidomain phiE solve debug: proc=2 completed solve, outerIter=2
[3] Bidomain phiE solve debug: proc=3 completed solve, outerIter=2
DICPCG:  Solving for Vm, Initial residual = 6.65148e-07, Final residual = 6.20654e-16, No Iterations 4
ExecutionTime = 0.13 s  ClockTime = 0 s

Time = 0.0403587

DEBUG cell=0 t=0.0381165→0.0403587 step=0.00224215 V=0.23368 u1=1.27234 u2=0.963269 u3=0 Iion=-0.421064
DEBUG cell=0 t=0.0381165→0.0403587 step=0.0201793 V=0.23368 u1=1.27484 u2=0.961192 u3=0 Iion=-0.420985
[4] Bidomain phiE reference debug: proc=4 point=(0.125 0.05 0.05) refCell=-1 ownsReference=0
[1] Bidomain phiE reference debug: proc=1 point=(0.125 0.05 0.05) refCell=-1 ownsReference=0
[3] Bidomain phiE reference debug: proc=3 point=(0.125 0.05 0.05) refCell=2 ownsReference=1
[2] Bidomain phiE reference debug: proc=2 point=(0.125 0.05 0.05) refCell=-1 ownsReference=0
[5] Bidomain phiE reference debug: proc=5 point=(0.125 0.05 0.05) refCell=-1 ownsReference=0
[0] Bidomain phiE reference debug: proc=0 point=(0.125 0.05 0.05) refCell=-1 ownsReference=0
Bidomain phiE reference summary: ownerCount=1 ownerProc=3 point=(0.125 0.05 0.05)
PIMPLE: iteration 1
[0] Bidomain phiE solve debug: proc=0 entering solve, refCell=-1 refValue=0 outerIter=1
[1] Bidomain phiE solve debug: proc=1 entering solve, refCell=-1 refValue=0 outerIter=1
[4] Bidomain phiE solve debug: proc=4 entering solve, refCell=-1 refValue=0 outerIter=1
[3] Bidomain phiE solve debug: proc=3 entering solve, refCell=2 refValue=0 outerIter=1
[2] Bidomain phiE solve debug: proc=2 entering solve, refCell=-1 refValue=0 outerIter=1
[5] Bidomain phiE solve debug: proc=5 entering solve, refCell=-1 refValue=0 outerIter=1
DICPCG:  Solving for phiE, Initial residual = 6.60178e-07, Final residual = 7.61006e-16, No Iterations 94
[0] Bidomain phiE solve debug: proc=0 completed solve, outerIter=1
[4] Bidomain phiE solve debug: proc=4 completed solve, outerIter=1
[2] Bidomain phiE solve debug: proc=2 completed solve, outerIter=1
[3] Bidomain phiE solve debug: proc=3 completed solve, outerIter=1
[5] Bidomain phiE solve debug: proc=5 completed solve, outerIter=1
[1] Bidomain phiE solve debug: proc=1 completed solve, outerIter=1
DICPCG:  Solving for Vm, Initial residual = 0.000473119, Final residual = 1.08735e-17, No Iterations 6
PIMPLE: iteration 2
[2] Bidomain phiE solve debug: proc=2 entering solve, refCell=-1 refValue=0 outerIter=2
[3] Bidomain phiE solve debug: proc=3 entering solve, refCell=2 refValue=0 outerIter=2
[1] Bidomain phiE solve debug: proc=1 entering solve, refCell=-1 refValue=0 outerIter=2
[5] Bidomain phiE solve debug: proc=5 entering solve, refCell=-1 refValue=0 outerIter=2
[0] Bidomain phiE solve debug: proc=0 entering solve, refCell=-1 refValue=0 outerIter=2
[4] Bidomain phiE solve debug: proc=4 entering solve, refCell=-1 refValue=0 outerIter=2
DICPCG:  Solving for phiE, Initial residual = 0.000469585, Final residual = 9.71656e-16, No Iterations 106
[5] Bidomain phiE solve debug: proc=5 completed solve, outerIter=2
[0] Bidomain phiE solve debug: proc=0 completed solve, outerIter=2
[3] Bidomain phiE solve debug: proc=3 completed solve, outerIter=2
[2] Bidomain phiE solve debug: proc=2 completed solve, outerIter=2
[4] Bidomain phiE solve debug: proc=4 completed solve, outerIter=2
[1] Bidomain phiE solve debug: proc=1 completed solve, outerIter=2
DICPCG:  Solving for Vm, Initial residual = 6.63521e-07, Final residual = 6.19137e-16, No Iterations 4
ExecutionTime = 0.14 s  ClockTime = 0 s

Time = 0.0426008

DEBUG cell=0 t=0.0403587→0.0426008 step=0.00224215 V=0.233902 u1=1.27484 u2=0.961192 u3=0 Iion=-0.420985
DEBUG cell=0 t=0.0403587→0.0426008 step=0.0201793 V=0.233902 u1=1.27734 u2=0.959123 u3=0 Iion=-0.420907
[5] Bidomain phiE reference debug: proc=5 point=(0.125 0.05 0.05) refCell=-1 ownsReference=0
[3] Bidomain phiE reference debug: proc=3 point=(0.125 0.05 0.05) refCell=2 ownsReference=1
[4] Bidomain phiE reference debug: proc=4 point=(0.125 0.05 0.05) refCell=-1 ownsReference=0
[2] Bidomain phiE reference debug: proc=2 point=(0.125 0.05 0.05) refCell=-1 ownsReference=0
[1] Bidomain phiE reference debug: proc=1 point=(0.125 0.05 0.05) refCell=-1 ownsReference=0
[0] Bidomain phiE reference debug: proc=0 point=(0.125 0.05 0.05) refCell=-1 ownsReference=0
Bidomain phiE reference summary: ownerCount=1 ownerProc=3 point=(0.125 0.05 0.05)
PIMPLE: iteration 1
[5] Bidomain phiE solve debug: proc=5 entering solve, refCell=-1 refValue=0 outerIter=1
[4] Bidomain phiE solve debug: proc=4 entering solve, refCell=-1 refValue=0 outerIter=1
[2] Bidomain phiE solve debug: proc=2 entering solve, refCell=-1 refValue=0 outerIter=1
[3] Bidomain phiE solve debug: proc=3 entering solve, refCell=2 refValue=0 outerIter=1
[0] Bidomain phiE solve debug: proc=0 entering solve, refCell=-1 refValue=0 outerIter=1
[1] Bidomain phiE solve debug: proc=1 entering solve, refCell=-1 refValue=0 outerIter=1
DICPCG:  Solving for phiE, Initial residual = 6.58563e-07, Final residual = 7.59145e-16, No Iterations 94
[0] Bidomain phiE solve debug: proc=0 completed solve, outerIter=1
[5] Bidomain phiE solve debug: proc=5 completed solve, outerIter=1
[2] Bidomain phiE solve debug: proc=2 completed solve, outerIter=1
[3] Bidomain phiE solve debug: proc=3 completed solve, outerIter=1
[4] Bidomain phiE solve debug: proc=4 completed solve, outerIter=1
[1] Bidomain phiE solve debug: proc=1 completed solve, outerIter=1
DICPCG:  Solving for Vm, Initial residual = 0.000471963, Final residual = 1.08469e-17, No Iterations 6
PIMPLE: iteration 2
[5] Bidomain phiE solve debug: proc=5 entering solve, refCell=-1 refValue=0 outerIter=2
[1] Bidomain phiE solve debug: proc=1 entering solve, refCell=-1 refValue=0 outerIter=2
[2] Bidomain phiE solve debug: proc=2 entering solve, refCell=-1 refValue=0 outerIter=2
[4] Bidomain phiE solve debug: proc=4 entering solve, refCell=-1 refValue=0 outerIter=2
[0] Bidomain phiE solve debug: proc=0 entering solve, refCell=-1 refValue=0 outerIter=2
[3] Bidomain phiE solve debug: proc=3 entering solve, refCell=2 refValue=0 outerIter=2
DICPCG:  Solving for phiE, Initial residual = 0.000468438, Final residual = 9.69157e-16, No Iterations 106
[0] Bidomain phiE solve debug: proc=0 completed solve, outerIter=2
[5] Bidomain phiE solve debug: proc=5 completed solve, outerIter=2
[4] Bidomain phiE solve debug: proc=4 completed solve, outerIter=2
[3] Bidomain phiE solve debug: proc=3 completed solve, outerIter=2
[2] Bidomain phiE solve debug: proc=2 completed solve, outerIter=2
[1] Bidomain phiE solve debug: proc=1 completed solve, outerIter=2
DICPCG:  Solving for Vm, Initial residual = 6.619e-07, Final residual = 6.17627e-16, No Iterations 4
ExecutionTime = 0.15 s  ClockTime = 0 s

Time = 0.044843

DEBUG cell=0 t=0.0426008→0.044843 step=0.00224215 V=0.234124 u1=1.27734 u2=0.959123 u3=0 Iion=-0.420907
DEBUG cell=0 t=0.0426008→0.044843 step=0.0201793 V=0.234124 u1=1.27983 u2=0.957064 u3=0 Iion=-0.420829
[5] Bidomain phiE reference debug: proc=5 point=(0.125 0.05 0.05) refCell=-1 ownsReference=0
[4] Bidomain phiE reference debug: proc=4 point=(0.125 0.05 0.05) refCell=-1 ownsReference=0
[2] Bidomain phiE reference debug: proc=2 point=(0.125 0.05 0.05) refCell=-1 ownsReference=0
[3] Bidomain phiE reference debug: proc=3 point=(0.125 0.05 0.05) refCell=2 ownsReference=1
[0] Bidomain phiE reference debug: proc=0 point=(0.125 0.05 0.05) refCell=-1 ownsReference=0
Bidomain phiE reference summary: ownerCount=1 ownerProc=3 point=(0.125 0.05 0.05)
PIMPLE: iteration 1
[1] Bidomain phiE reference debug: proc=1 point=(0.125 0.05 0.05) refCell=-1 ownsReference=0
[2] Bidomain phiE solve debug: proc=2 entering solve, refCell=-1 refValue=0 outerIter=1
[4] Bidomain phiE solve debug: proc=4 entering solve, refCell=-1 refValue=0 outerIter=1
[5] Bidomain phiE solve debug: proc=5 entering solve, refCell=-1 refValue=0 outerIter=1
[3] Bidomain phiE solve debug: proc=3 entering solve, refCell=2 refValue=0 outerIter=1
[1] Bidomain phiE solve debug: proc=1 entering solve, refCell=-1 refValue=0 outerIter=1
[0] Bidomain phiE solve debug: proc=0 entering solve, refCell=-1 refValue=0 outerIter=1
DICPCG:  Solving for phiE, Initial residual = 6.56954e-07, Final residual = 7.57293e-16, No Iterations 94
[0] Bidomain phiE solve debug: proc=0 completed solve, outerIter=1
[1] Bidomain phiE solve debug: proc=1 completed solve, outerIter=1
[5] Bidomain phiE solve debug: proc=5 completed solve, outerIter=1
[3] Bidomain phiE solve debug: proc=3 completed solve, outerIter=1
[2] Bidomain phiE solve debug: proc=2 completed solve, outerIter=1
[4] Bidomain phiE solve debug: proc=4 completed solve, outerIter=1
DICPCG:  Solving for Vm, Initial residual = 0.000470812, Final residual = 1.08205e-17, No Iterations 6
PIMPLE: iteration 2
[5] Bidomain phiE solve debug: proc=5 entering solve, refCell=-1 refValue=0 outerIter=2
[1] Bidomain phiE solve debug: proc=1 entering solve, refCell=-1 refValue=0 outerIter=2
[0] Bidomain phiE solve debug: proc=0 entering solve, refCell=-1 refValue=0 outerIter=2
[2] Bidomain phiE solve debug: proc=2 entering solve, refCell=-1 refValue=0 outerIter=2
[4] Bidomain phiE solve debug: proc=4 entering solve, refCell=-1 refValue=0 outerIter=2
[3] Bidomain phiE solve debug: proc=3 entering solve, refCell=2 refValue=0 outerIter=2
DICPCG:  Solving for phiE, Initial residual = 0.000467295, Final residual = 9.66669e-16, No Iterations 106
[0] Bidomain phiE solve debug: proc=0 completed solve, outerIter=2
[5] Bidomain phiE solve debug: proc=5 completed solve, outerIter=2
[2] Bidomain phiE solve debug: proc=2 completed solve, outerIter=2
[4] Bidomain phiE solve debug: proc=4 completed solve, outerIter=2
[3] Bidomain phiE solve debug: proc=3 completed solve, outerIter=2
[1] Bidomain phiE solve debug: proc=1 completed solve, outerIter=2
DICPCG:  Solving for Vm, Initial residual = 6.60286e-07, Final residual = 6.16123e-16, No Iterations 4
ExecutionTime = 0.16 s  ClockTime = 0 s

Time = 0.0470851

DEBUG cell=0 t=0.044843→0.0470851 step=0.00224215 V=0.234345 u1=1.27983 u2=0.957064 u3=0 Iion=-0.420829
DEBUG cell=0 t=0.044843→0.0470851 step=0.0201793 V=0.234345 u1=1.28233 u2=0.955013 u3=0 Iion=-0.420752
[5] Bidomain phiE reference debug: proc=5 point=(0.125 0.05 0.05) refCell=-1 ownsReference=0
[1] Bidomain phiE reference debug: proc=1 point=(0.125 0.05 0.05) refCell=-1 ownsReference=0
[0] Bidomain phiE reference debug: proc=0 point=(0.125 0.05 0.05) refCell=-1 ownsReference=0
Bidomain phiE reference summary: ownerCount=1 ownerProc=3 point=(0.125 0.05 0.05)
PIMPLE: iteration 1
[2] Bidomain phiE reference debug: proc=2 point=(0.125 0.05 0.05) refCell=-1 ownsReference=0
[4] Bidomain phiE reference debug: proc=4 point=(0.125 0.05 0.05) refCell=-1 ownsReference=0
[3] Bidomain phiE reference debug: proc=3 point=(0.125 0.05 0.05) refCell=2 ownsReference=1
[5] Bidomain phiE solve debug: proc=5 entering solve, refCell=-1 refValue=0 outerIter=1
[3] Bidomain phiE solve debug: proc=3 entering solve, refCell=2 refValue=0 outerIter=1
[2] Bidomain phiE solve debug: proc=2 entering solve, refCell=-1 refValue=0 outerIter=1
[0] Bidomain phiE solve debug: proc=0 entering solve, refCell=-1 refValue=0 outerIter=1
[1] Bidomain phiE solve debug: proc=1 entering solve, refCell=-1 refValue=0 outerIter=1
[4] Bidomain phiE solve debug: proc=4 entering solve, refCell=-1 refValue=0 outerIter=1
DICPCG:  Solving for phiE, Initial residual = 6.55353e-07, Final residual = 7.55448e-16, No Iterations 94
[0] Bidomain phiE solve debug: proc=0 completed solve, outerIter=1
[3] Bidomain phiE solve debug: proc=3 completed solve, outerIter=1
[2] Bidomain phiE solve debug: proc=2 completed solve, outerIter=1
[1] Bidomain phiE solve debug: proc=1 completed solve, outerIter=1
[4] Bidomain phiE solve debug: proc=4 completed solve, outerIter=1
[5] Bidomain phiE solve debug: proc=5 completed solve, outerIter=1
DICPCG:  Solving for Vm, Initial residual = 0.000469666, Final residual = 1.07941e-17, No Iterations 6
PIMPLE: iteration 2
[0] Bidomain phiE solve debug: proc=0 entering solve, refCell=-1 refValue=0 outerIter=2
[1] Bidomain phiE solve debug: proc=1 entering solve, refCell=-1 refValue=0 outerIter=2
[3] Bidomain phiE solve debug: proc=3 entering solve, refCell=2 refValue=0 outerIter=2
[4] Bidomain phiE solve debug: proc=4 entering solve, refCell=-1 refValue=0 outerIter=2
[2] Bidomain phiE solve debug: proc=2 entering solve, refCell=-1 refValue=0 outerIter=2
[5] Bidomain phiE solve debug: proc=5 entering solve, refCell=-1 refValue=0 outerIter=2
DICPCG:  Solving for phiE, Initial residual = 0.000466157, Final residual = 9.64192e-16, No Iterations 106
[0] Bidomain phiE solve debug: proc=0 completed solve, outerIter=2
[3] Bidomain phiE solve debug: proc=3 completed solve, outerIter=2
[5] Bidomain phiE solve debug: proc=5 completed solve, outerIter=2
[1] Bidomain phiE solve debug: proc=1 completed solve, outerIter=2
[2] Bidomain phiE solve debug: proc=2 completed solve, outerIter=2
[4] Bidomain phiE solve debug: proc=4 completed solve, outerIter=2
DICPCG:  Solving for Vm, Initial residual = 6.5868e-07, Final residual = 6.14625e-16, No Iterations 4
ExecutionTime = 0.16 s  ClockTime = 0 s

Time = 0.0493273

DEBUG cell=0 t=0.0470851→0.0493273 step=0.00224215 V=0.234565 u1=1.28233 u2=0.955013 u3=0 Iion=-0.420752
DEBUG cell=0 t=0.0470851→0.0493273 step=0.0201793 V=0.234565 u1=1.28483 u2=0.952971 u3=0 Iion=-0.420675
[1] Bidomain phiE reference debug: proc=1 point=(0.125 0.05 0.05) refCell=-1 ownsReference=0
[0] Bidomain phiE reference debug: proc=0 point=(0.125 0.05 0.05) refCell=-1 ownsReference=0
[4] Bidomain phiE reference debug: proc=4 point=(0.125 0.05 0.05) refCell=-1 ownsReference=0
[3] Bidomain phiE reference debug: proc=3 point=(0.125 0.05 0.05) refCell=2 ownsReference=1
[2] Bidomain phiE reference debug: proc=2 point=(0.125 0.05 0.05) refCell=-1 ownsReference=0
Bidomain phiE reference summary: ownerCount=1 ownerProc=3 point=(0.125 0.05 0.05)
PIMPLE: iteration 1
[5] Bidomain phiE reference debug: proc=5 point=(0.125 0.05 0.05) refCell=-1 ownsReference=0
[2] Bidomain phiE solve debug: proc=2 entering solve, refCell=-1 refValue=0 outerIter=1
[1] Bidomain phiE solve debug: proc=1 entering solve, refCell=-1 refValue=0 outerIter=1
[0] Bidomain phiE solve debug: proc=0 entering solve, refCell=-1 refValue=0 outerIter=1
[5] Bidomain phiE solve debug: proc=5 entering solve, refCell=-1 refValue=0 outerIter=1
[3] Bidomain phiE solve debug: proc=3 entering solve, refCell=2 refValue=0 outerIter=1
[4] Bidomain phiE solve debug: proc=4 entering solve, refCell=-1 refValue=0 outerIter=1
DICPCG:  Solving for phiE, Initial residual = 6.53758e-07, Final residual = 7.53612e-16, No Iterations 94
[5] Bidomain phiE solve debug: proc=5 completed solve, outerIter=1
[0] Bidomain phiE solve debug: proc=0 completed solve, outerIter=1
[3] Bidomain phiE solve debug: proc=3 completed solve, outerIter=1
[4] Bidomain phiE solve debug: proc=4 completed solve, outerIter=1
[2] Bidomain phiE solve debug: proc=2 completed solve, outerIter=1
[1] Bidomain phiE solve debug: proc=1 completed solve, outerIter=1
DICPCG:  Solving for Vm, Initial residual = 0.000468524, Final residual = 1.07679e-17, No Iterations 6
PIMPLE: iteration 2
[3] Bidomain phiE solve debug: proc=3 entering solve, refCell=2 refValue=0 outerIter=2
[4] Bidomain phiE solve debug: proc=4 entering solve, refCell=-1 refValue=0 outerIter=2
[5] Bidomain phiE solve debug: proc=5 entering solve, refCell=-1 refValue=0 outerIter=2
[1] Bidomain phiE solve debug: proc=1 entering solve, refCell=-1 refValue=0 outerIter=2
[2] Bidomain phiE solve debug: proc=2 entering solve, refCell=-1 refValue=0 outerIter=2
[0] Bidomain phiE solve debug: proc=0 entering solve, refCell=-1 refValue=0 outerIter=2
DICPCG:  Solving for phiE, Initial residual = 0.000465025, Final residual = 9.61726e-16, No Iterations 106
[0] Bidomain phiE solve debug: proc=0 completed solve, outerIter=2
[1] Bidomain phiE solve debug: proc=1 completed solve, outerIter=2
[4] Bidomain phiE solve debug: proc=4 completed solve, outerIter=2
[2] Bidomain phiE solve debug: proc=2 completed solve, outerIter=2
[5] Bidomain phiE solve debug: proc=5 completed solve, outerIter=2
[3] Bidomain phiE solve debug: proc=3 completed solve, outerIter=2
DICPCG:  Solving for Vm, Initial residual = 6.5708e-07, Final residual = 6.13134e-16, No Iterations 4
ExecutionTime = 0.17 s  ClockTime = 0 s

Time = 0.0515694

DEBUG cell=0 t=0.0493273→0.0515694 step=0.00224215 V=0.234786 u1=1.28483 u2=0.952971 u3=0 Iion=-0.420675
DEBUG cell=0 t=0.0493273→0.0515694 step=0.0201793 V=0.234786 u1=1.28732 u2=0.950937 u3=0 Iion=-0.420599
[0] Bidomain phiE reference debug: proc=0 point=(0.125 0.05 0.05) refCell=-1 ownsReference=0
Bidomain phiE reference summary: ownerCount=1 ownerProc=3 point=(0.125 0.05 0.05)
PIMPLE: iteration 1
[1] Bidomain phiE reference debug: proc=1 point=(0.125 0.05 0.05) refCell=-1 ownsReference=0
[2] Bidomain phiE reference debug: proc=2 point=(0.125 0.05 0.05) refCell=-1 ownsReference=0
[3] Bidomain phiE reference debug: proc=3 point=(0.125 0.05 0.05) refCell=2 ownsReference=1
[4] Bidomain phiE reference debug: proc=4 point=(0.125 0.05 0.05) refCell=-1 ownsReference=0
[5] Bidomain phiE reference debug: proc=5 point=(0.125 0.05 0.05) refCell=-1 ownsReference=0
[4] Bidomain phiE solve debug: proc=4 entering solve, refCell=-1 refValue=0 outerIter=1
[0] Bidomain phiE solve debug: proc=0 entering solve, refCell=-1 refValue=0 outerIter=1
[3] Bidomain phiE solve debug: proc=3 entering solve, refCell=2 refValue=0 outerIter=1
[5] Bidomain phiE solve debug: proc=5 entering solve, refCell=-1 refValue=0 outerIter=1
[1] Bidomain phiE solve debug: proc=1 entering solve, refCell=-1 refValue=0 outerIter=1
[2] Bidomain phiE solve debug: proc=2 entering solve, refCell=-1 refValue=0 outerIter=1
DICPCG:  Solving for phiE, Initial residual = 6.5217e-07, Final residual = 7.51785e-16, No Iterations 94
[0] Bidomain phiE solve debug: proc=0 completed solve, outerIter=1
[5] Bidomain phiE solve debug: proc=5 completed solve, outerIter=1
[4] Bidomain phiE solve debug: proc=4 completed solve, outerIter=1
[1] Bidomain phiE solve debug: proc=1 completed solve, outerIter=1
[2] Bidomain phiE solve debug: proc=2 completed solve, outerIter=1
[3] Bidomain phiE solve debug: proc=3 completed solve, outerIter=1
DICPCG:  Solving for Vm, Initial residual = 0.000467388, Final residual = 1.07417e-17, No Iterations 6
PIMPLE: iteration 2
[5] Bidomain phiE solve debug: proc=5 entering solve, refCell=-1 refValue=0 outerIter=2
[4] Bidomain phiE solve debug: proc=4 entering solve, refCell=-1 refValue=0 outerIter=2
[1] Bidomain phiE solve debug: proc=1 entering solve, refCell=-1 refValue=0 outerIter=2
[3] Bidomain phiE solve debug: proc=3 entering solve, refCell=2 refValue=0 outerIter=2
[2] Bidomain phiE solve debug: proc=2 entering solve, refCell=-1 refValue=0 outerIter=2
[0] Bidomain phiE solve debug: proc=0 entering solve, refCell=-1 refValue=0 outerIter=2
DICPCG:  Solving for phiE, Initial residual = 0.000463897, Final residual = 9.59271e-16, No Iterations 106
[0] Bidomain phiE solve debug: proc=0 completed solve, outerIter=2
[1] Bidomain phiE solve debug: proc=1 completed solve, outerIter=2
[4] Bidomain phiE solve debug: proc=4 completed solve, outerIter=2
[2] Bidomain phiE solve debug: proc=2 completed solve, outerIter=2
[5] Bidomain phiE solve debug: proc=5 completed solve, outerIter=2
[3] Bidomain phiE solve debug: proc=3 completed solve, outerIter=2
DICPCG:  Solving for Vm, Initial residual = 6.55486e-07, Final residual = 6.1165e-16, No Iterations 4
ExecutionTime = 0.18 s  ClockTime = 0 s

Time = 0.0538116

DEBUG cell=0 t=0.0515694→0.0538116 step=0.00224215 V=0.235006 u1=1.28732 u2=0.950937 u3=0 Iion=-0.420599
DEBUG cell=0 t=0.0515694→0.0538116 step=0.0201793 V=0.235006 u1=1.28982 u2=0.948912 u3=0 Iion=-0.420524
[5] Bidomain phiE reference debug: proc=5 point=(0.125 0.05 0.05) refCell=-1 ownsReference=0
[4] Bidomain phiE reference debug: proc=4 point=(0.125 0.05 0.05) refCell=-1 ownsReference=0
[1] Bidomain phiE reference debug: proc=1 point=(0.125 0.05 0.05) refCell=-1 ownsReference=0
[3] Bidomain phiE reference debug: proc=3 point=(0.125 0.05 0.05) refCell=2 ownsReference=1
[2] Bidomain phiE reference debug: proc=2 point=(0.125 0.05 0.05) refCell=-1 ownsReference=0
[0] Bidomain phiE reference debug: proc=0 point=(0.125 0.05 0.05) refCell=-1 ownsReference=0
Bidomain phiE reference summary: ownerCount=1 ownerProc=3 point=(0.125 0.05 0.05)
PIMPLE: iteration 1
[1] Bidomain phiE solve debug: proc=1 entering solve, refCell=-1 refValue=0 outerIter=1
[2] Bidomain phiE solve debug: proc=2 entering solve, refCell=-1 refValue=0 outerIter=1
[5] Bidomain phiE solve debug: proc=5 entering solve, refCell=-1 refValue=0 outerIter=1
[0] Bidomain phiE solve debug: proc=0 entering solve, refCell=-1 refValue=0 outerIter=1
[4] Bidomain phiE solve debug: proc=4 entering solve, refCell=-1 refValue=0 outerIter=1
[3] Bidomain phiE solve debug: proc=3 entering solve, refCell=2 refValue=0 outerIter=1
DICPCG:  Solving for phiE, Initial residual = 6.50589e-07, Final residual = 7.49966e-16, No Iterations 94
[5] Bidomain phiE solve debug: proc=5 completed solve, outerIter=1
[0] Bidomain phiE solve debug: proc=0 completed solve, outerIter=1
[1] Bidomain phiE solve debug: proc=1 completed solve, outerIter=1
[2] Bidomain phiE solve debug: proc=2 completed solve, outerIter=1
[3] Bidomain phiE solve debug: proc=3 completed solve, outerIter=1
[4] Bidomain phiE solve debug: proc=4 completed solve, outerIter=1
DICPCG:  Solving for Vm, Initial residual = 0.000466256, Final residual = 1.07157e-17, No Iterations 6
PIMPLE: iteration 2
[2] Bidomain phiE solve debug: proc=2 entering solve, refCell=-1 refValue=0 outerIter=2
[0] Bidomain phiE solve debug: proc=0 entering solve, refCell=-1 refValue=0 outerIter=2
[1] Bidomain phiE solve debug: proc=1 entering solve, refCell=-1 refValue=0 outerIter=2
[5] Bidomain phiE solve debug: proc=5 entering solve, refCell=-1 refValue=0 outerIter=2
[3] Bidomain phiE solve debug: proc=3 entering solve, refCell=2 refValue=0 outerIter=2
[4] Bidomain phiE solve debug: proc=4 entering solve, refCell=-1 refValue=0 outerIter=2
DICPCG:  Solving for phiE, Initial residual = 0.000462773, Final residual = 9.56826e-16, No Iterations 106
[0] Bidomain phiE solve debug: proc=0 completed solve, outerIter=2
[5] Bidomain phiE solve debug: proc=5 completed solve, outerIter=2
[3] Bidomain phiE solve debug: proc=3 completed solve, outerIter=2
[2] Bidomain phiE solve debug: proc=2 completed solve, outerIter=2
[4] Bidomain phiE solve debug: proc=4 completed solve, outerIter=2
[1] Bidomain phiE solve debug: proc=1 completed solve, outerIter=2
DICPCG:  Solving for Vm, Initial residual = 6.539e-07, Final residual = 6.10171e-16, No Iterations 4
ExecutionTime = 0.19 s  ClockTime = 0 s

Time = 0.0560537

DEBUG cell=0 t=0.0538116→0.0560537 step=0.00224215 V=0.235226 u1=1.28982 u2=0.948912 u3=0 Iion=-0.420524
DEBUG cell=0 t=0.0538116→0.0560537 step=0.0201793 V=0.235226 u1=1.29231 u2=0.946896 u3=0 Iion=-0.420449
[...]
DEBUG cell=0 t=0.186098→0.188341 step=0.0201793 V=0.247669 u1=1.43932 u2=0.841332 u3=0 Iion=-0.416859
[5] Bidomain phiE reference debug: proc=5 point=(0.125 0.05 0.05) refCell=-1 ownsReference=0
[3] Bidomain phiE reference debug: proc=3 point=(0.125 0.05 0.05) refCell=2 ownsReference=1
[1] Bidomain phiE reference debug: proc=1 point=(0.125 0.05 0.05) refCell=-1 ownsReference=0
[4] Bidomain phiE reference debug: proc=4 point=(0.125 0.05 0.05) refCell=-1 ownsReference=0
[2] Bidomain phiE reference debug: proc=2 point=(0.125 0.05 0.05) refCell=-1 ownsReference=0
[0] Bidomain phiE reference debug: proc=0 point=(0.125 0.05 0.05) refCell=-1 ownsReference=0
Bidomain phiE reference summary: ownerCount=1 ownerProc=3 point=(0.125 0.05 0.05)
PIMPLE: iteration 1
[1] Bidomain phiE solve debug: proc=1 entering solve, refCell=-1 refValue=0 outerIter=1
[2] Bidomain phiE solve debug: proc=2 entering solve, refCell=-1 refValue=0 outerIter=1
[4] Bidomain phiE solve debug: proc=4 entering solve, refCell=-1 refValue=0 outerIter=1
[5] Bidomain phiE solve debug: proc=5 entering solve, refCell=-1 refValue=0 outerIter=1
[0] Bidomain phiE solve debug: proc=0 entering solve, refCell=-1 refValue=0 outerIter=1
[3] Bidomain phiE solve debug: proc=3 entering solve, refCell=2 refValue=0 outerIter=1
DICPCG:  Solving for phiE, Initial residual = 5.66644e-07, Final residual = 6.53858e-16, No Iterations 94
[0] Bidomain phiE solve debug: proc=0 completed solve, outerIter=1
[1] Bidomain phiE solve debug: proc=1 completed solve, outerIter=1
[3] Bidomain phiE solve debug: proc=3 completed solve, outerIter=1
[5] Bidomain phiE solve debug: proc=5 completed solve, outerIter=1
[4] Bidomain phiE solve debug: proc=4 completed solve, outerIter=1
[2] Bidomain phiE solve debug: proc=2 completed solve, outerIter=1
DICPCG:  Solving for Vm, Initial residual = 0.000406171, Final residual = 9.33431e-18, No Iterations 6
PIMPLE: iteration 2
[1] Bidomain phiE solve debug: proc=1 entering solve, refCell=-1 refValue=0 outerIter=2
[0] Bidomain phiE solve debug: proc=0 entering solve, refCell=-1 refValue=0 outerIter=2
[2] Bidomain phiE solve debug: proc=2 entering solve, refCell=-1 refValue=0 outerIter=2
[4] Bidomain phiE solve debug: proc=4 entering solve, refCell=-1 refValue=0 outerIter=2
[5] Bidomain phiE solve debug: proc=5 entering solve, refCell=-1 refValue=0 outerIter=2
[3] Bidomain phiE solve debug: proc=3 entering solve, refCell=2 refValue=0 outerIter=2
DICPCG:  Solving for phiE, Initial residual = 0.000403135, Final residual = 8.27183e-16, No Iterations 106
[5] Bidomain phiE solve debug: proc=5 completed solve, outerIter=2
[0] Bidomain phiE solve debug: proc=0 completed solve, outerIter=2
[4] Bidomain phiE solve debug: proc=4 completed solve, outerIter=2
[1] Bidomain phiE solve debug: proc=1 completed solve, outerIter=2
[2] Bidomain phiE solve debug: proc=2 completed solve, outerIter=2
[3] Bidomain phiE solve debug: proc=3 completed solve, outerIter=2
DICPCG:  Solving for Vm, Initial residual = 5.69667e-07, Final residual = 5.3165e-16, No Iterations 4
ExecutionTime = 0.67 s  ClockTime = 1 s

Time = 0.190583

DEBUG cell=0 t=0.188341→0.190583 step=0.00224215 V=0.247872 u1=1.43932 u2=0.841332 u3=0 Iion=-0.416859
DEBUG cell=0 t=0.188341→0.190583 step=0.0201793 V=0.247872 u1=1.44181 u2=0.839744 u3=0 Iion=-0.41681
[5] Bidomain phiE reference debug: proc=5 point=(0.125 0.05 0.05) refCell=-1 ownsReference=0
[3] Bidomain phiE reference debug: proc=3 point=(0.125 0.05 0.05) refCell=2 ownsReference=1
[1] Bidomain phiE reference debug: proc=1 point=(0.125 0.05 0.05) refCell=-1 ownsReference=0
[4] Bidomain phiE reference debug: proc=4 point=(0.125 0.05 0.05) refCell=-1 ownsReference=0
[0] Bidomain phiE reference debug: proc=0 point=(0.125 0.05 0.05) refCell=-1 ownsReference=0
Bidomain phiE reference summary: ownerCount=1 ownerProc=3 point=(0.125 0.05 0.05)
PIMPLE: iteration 1
[2] Bidomain phiE reference debug: proc=2 point=(0.125 0.05 0.05) refCell=-1 ownsReference=0
[1] Bidomain phiE solve debug: proc=1 entering solve, refCell=-1 refValue=0 outerIter=1
[3] Bidomain phiE solve debug: proc=3 entering solve, refCell=2 refValue=0 outerIter=1
[4] Bidomain phiE solve debug: proc=4 entering solve, refCell=-1 refValue=0 outerIter=1
[0] Bidomain phiE solve debug: proc=0 entering solve, refCell=-1 refValue=0 outerIter=1
[5] Bidomain phiE solve debug: proc=5 entering solve, refCell=-1 refValue=0 outerIter=1
[2] Bidomain phiE solve debug: proc=2 entering solve, refCell=-1 refValue=0 outerIter=1
DICPCG:  Solving for phiE, Initial residual = 5.65406e-07, Final residual = 6.52445e-16, No Iterations 94
[0] Bidomain phiE solve debug: proc=0 completed solve, outerIter=1
[5] Bidomain phiE solve debug: proc=5 completed solve, outerIter=1
[4] Bidomain phiE solve debug: proc=4 completed solve, outerIter=1
[1] Bidomain phiE solve debug: proc=1 completed solve, outerIter=1
[2] Bidomain phiE solve debug: proc=2 completed solve, outerIter=1
[3] Bidomain phiE solve debug: proc=3 completed solve, outerIter=1
DICPCG:  Solving for Vm, Initial residual = 0.000405285, Final residual = 9.31394e-18, No Iterations 6
PIMPLE: iteration 2
[1] Bidomain phiE solve debug: proc=1 entering solve, refCell=-1 refValue=0 outerIter=2
[0] Bidomain phiE solve debug: proc=0 entering solve, refCell=-1 refValue=0 outerIter=2
[4] Bidomain phiE solve debug: proc=4 entering solve, refCell=-1 refValue=0 outerIter=2
[2] Bidomain phiE solve debug: proc=2 entering solve, refCell=-1 refValue=0 outerIter=2
[5] Bidomain phiE solve debug: proc=5 entering solve, refCell=-1 refValue=0 outerIter=2
[3] Bidomain phiE solve debug: proc=3 entering solve, refCell=2 refValue=0 outerIter=2
DICPCG:  Solving for phiE, Initial residual = 0.000402255, Final residual = 8.25273e-16, No Iterations 106
[0] Bidomain phiE solve debug: proc=0 completed solve, outerIter=2
[5] Bidomain phiE solve debug: proc=5 completed solve, outerIter=2
[3] Bidomain phiE solve debug: proc=3 completed solve, outerIter=2
[2] Bidomain phiE solve debug: proc=2 completed solve, outerIter=2
[4] Bidomain phiE solve debug: proc=4 completed solve, outerIter=2
[1] Bidomain phiE solve debug: proc=1 completed solve, outerIter=2
DICPCG:  Solving for Vm, Initial residual = 5.68424e-07, Final residual = 5.30492e-16, No Iterations 4
ExecutionTime = 0.68 s  ClockTime = 1 s

Time = 0.192825

DEBUG cell=0 t=0.190583→0.192825 step=0.00224215 V=0.248074 u1=1.44181 u2=0.839744 u3=0 Iion=-0.41681
DEBUG cell=0 t=0.190583→0.192825 step=0.0201793 V=0.248074 u1=1.4443 u2=0.838162 u3=0 Iion=-0.416762
[3] Bidomain phiE reference debug: proc=3 point=(0.125 0.05 0.05) refCell=2 ownsReference=1
[1] Bidomain phiE reference debug: proc=1 point=(0.125 0.05 0.05) refCell=-1 ownsReference=0
[2] Bidomain phiE reference debug: proc=2 point=(0.125 0.05 0.05) refCell=-1 ownsReference=0
[4] Bidomain phiE reference debug: proc=4 point=(0.125 0.05 0.05) refCell=-1 ownsReference=0
[5] Bidomain phiE reference debug: proc=5 point=(0.125 0.05 0.05) refCell=-1 ownsReference=0
[0] Bidomain phiE reference debug: proc=0 point=(0.125 0.05 0.05) refCell=-1 ownsReference=0
Bidomain phiE reference summary: ownerCount=1 ownerProc=3 point=(0.125 0.05 0.05)
PIMPLE: iteration 1
[1] Bidomain phiE solve debug: proc=1 entering solve, refCell=-1 refValue=0 outerIter=1
[3] Bidomain phiE solve debug: proc=3 entering solve, refCell=2 refValue=0 outerIter=1
[4] Bidomain phiE solve debug: proc=4 entering solve, refCell=-1 refValue=0 outerIter=1
[5] Bidomain phiE solve debug: proc=5 entering solve, refCell=-1 refValue=0 outerIter=1
[2] Bidomain phiE solve debug: proc=2 entering solve, refCell=-1 refValue=0 outerIter=1
[0] Bidomain phiE solve debug: proc=0 entering solve, refCell=-1 refValue=0 outerIter=1
DICPCG:  Solving for phiE, Initial residual = 5.64172e-07, Final residual = 6.51038e-16, No Iterations 94
[0] Bidomain phiE solve debug: proc=0 completed solve, outerIter=1
[1] Bidomain phiE solve debug: proc=1 completed solve, outerIter=1
[2] Bidomain phiE solve debug: proc=2 completed solve, outerIter=1
[5] Bidomain phiE solve debug: proc=5 completed solve, outerIter=1
[4] Bidomain phiE solve debug: proc=4 completed solve, outerIter=1
[3] Bidomain phiE solve debug: proc=3 completed solve, outerIter=1
DICPCG:  Solving for Vm, Initial residual = 0.000404402, Final residual = 9.29365e-18, No Iterations 6
PIMPLE: iteration 2
[1] Bidomain phiE solve debug: proc=1 entering solve, refCell=-1 refValue=0 outerIter=2
[0] Bidomain phiE solve debug: proc=0 entering solve, refCell=-1 refValue=0 outerIter=2
[2] Bidomain phiE solve debug: proc=2 entering solve, refCell=-1 refValue=0 outerIter=2
[5] Bidomain phiE solve debug: proc=5 entering solve, refCell=-1 refValue=0 outerIter=2
[4] Bidomain phiE solve debug: proc=4 entering solve, refCell=-1 refValue=0 outerIter=2
[3] Bidomain phiE solve debug: proc=3 entering solve, refCell=2 refValue=0 outerIter=2
DICPCG:  Solving for phiE, Initial residual = 0.000401379, Final residual = 8.2337e-16, No Iterations 106
[5] Bidomain phiE solve debug: proc=5 completed solve, outerIter=2
[0] Bidomain phiE solve debug: proc=0 completed solve, outerIter=2
[4] Bidomain phiE solve debug: proc=4 completed solve, outerIter=2
[2] Bidomain phiE solve debug: proc=2 completed solve, outerIter=2
[1] Bidomain phiE solve debug: proc=1 completed solve, outerIter=2
[3] Bidomain phiE solve debug: proc=3 completed solve, outerIter=2
DICPCG:  Solving for Vm, Initial residual = 5.67186e-07, Final residual = 5.29337e-16, No Iterations 4
ExecutionTime = 0.69 s  ClockTime = 1 s

Time = 0.195067

DEBUG cell=0 t=0.192825→0.195067 step=0.00224215 V=0.248276 u1=1.4443 u2=0.838162 u3=0 Iion=-0.416762
DEBUG cell=0 t=0.192825→0.195067 step=0.0201793 V=0.248276 u1=1.44678 u2=0.836586 u3=0 Iion=-0.416715
[4] Bidomain phiE reference debug: proc=4 point=(0.125 0.05 0.05) refCell=-1 ownsReference=0
[1] Bidomain phiE reference debug: proc=1 point=(0.125 0.05 0.05) refCell=-1 ownsReference=0
[5] Bidomain phiE reference debug: proc=5 point=(0.125 0.05 0.05) refCell=-1 ownsReference=0
[3] Bidomain phiE reference debug: proc=3 point=(0.125 0.05 0.05) refCell=2 ownsReference=1
[0] Bidomain phiE reference debug: proc=0 point=(0.125 0.05 0.05) refCell=-1 ownsReference=0
Bidomain phiE reference summary: ownerCount=1 ownerProc=3 point=(0.125 0.05 0.05)
PIMPLE: iteration 1
[2] Bidomain phiE reference debug: proc=2 point=(0.125 0.05 0.05) refCell=-1 ownsReference=0
[5] Bidomain phiE solve debug: proc=5 entering solve, refCell=-1 refValue=0 outerIter=1
[4] Bidomain phiE solve debug: proc=4 entering solve, refCell=-1 refValue=0 outerIter=1
[2] Bidomain phiE solve debug: proc=2 entering solve, refCell=-1 refValue=0 outerIter=1
[1] Bidomain phiE solve debug: proc=1 entering solve, refCell=-1 refValue=0 outerIter=1
[0] Bidomain phiE solve debug: proc=0 entering solve, refCell=-1 refValue=0 outerIter=1
[3] Bidomain phiE solve debug: proc=3 entering solve, refCell=2 refValue=0 outerIter=1
DICPCG:  Solving for phiE, Initial residual = 5.62943e-07, Final residual = 6.49635e-16, No Iterations 94
[0] Bidomain phiE solve debug: proc=0 completed solve, outerIter=1
[5] Bidomain phiE solve debug: proc=5 completed solve, outerIter=1
[4] Bidomain phiE solve debug: proc=4 completed solve, outerIter=1
[2] Bidomain phiE solve debug: proc=2 completed solve, outerIter=1
[1] Bidomain phiE solve debug: proc=1 completed solve, outerIter=1
[3] Bidomain phiE solve debug: proc=3 completed solve, outerIter=1
DICPCG:  Solving for Vm, Initial residual = 0.000403522, Final residual = 9.27343e-18, No Iterations 6
PIMPLE: iteration 2
[5] Bidomain phiE solve debug: proc=5 entering solve, refCell=-1 refValue=0 outerIter=2
[1] Bidomain phiE solve debug: proc=1 entering solve, refCell=-1 refValue=0 outerIter=2
[3] Bidomain phiE solve debug: proc=3 entering solve, refCell=2 refValue=0 outerIter=2
[0] Bidomain phiE solve debug: proc=0 entering solve, refCell=-1 refValue=0 outerIter=2
[4] Bidomain phiE solve debug: proc=4 entering solve, refCell=-1 refValue=0 outerIter=2
[2] Bidomain phiE solve debug: proc=2 entering solve, refCell=-1 refValue=0 outerIter=2
DICPCG:  Solving for phiE, Initial residual = 0.000400505, Final residual = 8.21474e-16, No Iterations 106
[0] Bidomain phiE solve debug: proc=0 completed solve, outerIter=2
[1] Bidomain phiE solve debug: proc=1 completed solve, outerIter=2
[2] Bidomain phiE solve debug: proc=2 completed solve, outerIter=2
[5] Bidomain phiE solve debug: proc=5 completed solve, outerIter=2
[4] Bidomain phiE solve debug: proc=4 completed solve, outerIter=2
[3] Bidomain phiE solve debug: proc=3 completed solve, outerIter=2
DICPCG:  Solving for Vm, Initial residual = 5.65953e-07, Final residual = 5.28187e-16, No Iterations 4
ExecutionTime = 0.7 s  ClockTime = 1 s

Time = 0.197309

DEBUG cell=0 t=0.195067→0.197309 step=0.00224215 V=0.248478 u1=1.44678 u2=0.836586 u3=0 Iion=-0.416715
DEBUG cell=0 t=0.195067→0.197309 step=0.0201793 V=0.248478 u1=1.44927 u2=0.835016 u3=0 Iion=-0.416668
[4] Bidomain phiE reference debug: proc=4 point=(0.125 0.05 0.05) refCell=-1 ownsReference=0
[3] Bidomain phiE reference debug: proc=3 point=(0.125 0.05 0.05) refCell=2 ownsReference=1
[1] Bidomain phiE reference debug: proc=1 point=(0.125 0.05 0.05) refCell=-1 ownsReference=0
[0] Bidomain phiE reference debug: proc=0 point=(0.125 0.05 0.05) refCell=-1 ownsReference=0
Bidomain phiE reference summary: ownerCount=1 ownerProc=3 point=(0.125 0.05 0.05)
PIMPLE: iteration 1
[2] Bidomain phiE reference debug: proc=2 point=(0.125 0.05 0.05) refCell=-1 ownsReference=0
[5] Bidomain phiE reference debug: proc=5 point=(0.125 0.05 0.05) refCell=-1 ownsReference=0
[1] Bidomain phiE solve debug: proc=1 entering solve, refCell=-1 refValue=0 outerIter=1
[4] Bidomain phiE solve debug: proc=4 entering solve, refCell=-1 refValue=0 outerIter=1
[2] Bidomain phiE solve debug: proc=2 entering solve, refCell=-1 refValue=0 outerIter=1
[5] Bidomain phiE solve debug: proc=5 entering solve, refCell=-1 refValue=0 outerIter=1
[0] Bidomain phiE solve debug: proc=0 entering solve, refCell=-1 refValue=0 outerIter=1
[3] Bidomain phiE solve debug: proc=3 entering solve, refCell=2 refValue=0 outerIter=1
DICPCG:  Solving for phiE, Initial residual = 5.61719e-07, Final residual = 6.48239e-16, No Iterations 94
[4] Bidomain phiE solve debug: proc=4 completed solve, outerIter=1
[2] Bidomain phiE solve debug: proc=2 completed solve, outerIter=1
[3] Bidomain phiE solve debug: proc=3 completed solve, outerIter=1
[0] Bidomain phiE solve debug: proc=0 completed solve, outerIter=1
[1] Bidomain phiE solve debug: proc=1 completed solve, outerIter=1
[5] Bidomain phiE solve debug: proc=5 completed solve, outerIter=1
DICPCG:  Solving for Vm, Initial residual = 0.000402645, Final residual = 9.25328e-18, No Iterations 6
PIMPLE: iteration 2
[4] Bidomain phiE solve debug: proc=4 entering solve, refCell=-1 refValue=0 outerIter=2
[1] Bidomain phiE solve debug: proc=1 entering solve, refCell=-1 refValue=0 outerIter=2
[5] Bidomain phiE solve debug: proc=5 entering solve, refCell=-1 refValue=0 outerIter=2
[2] Bidomain phiE solve debug: proc=2 entering solve, refCell=-1 refValue=0 outerIter=2
[3] Bidomain phiE solve debug: proc=3 entering solve, refCell=2 refValue=0 outerIter=2
[0] Bidomain phiE solve debug: proc=0 entering solve, refCell=-1 refValue=0 outerIter=2
DICPCG:  Solving for phiE, Initial residual = 0.000399635, Final residual = 8.19585e-16, No Iterations 106
[0] Bidomain phiE solve debug: proc=0 completed solve, outerIter=2
[2] Bidomain phiE solve debug: proc=2 completed solve, outerIter=2
[1] Bidomain phiE solve debug: proc=1 completed solve, outerIter=2
[3] Bidomain phiE solve debug: proc=3 completed solve, outerIter=2
[5] Bidomain phiE solve debug: proc=5 completed solve, outerIter=2
[4] Bidomain phiE solve debug: proc=4 completed solve, outerIter=2
DICPCG:  Solving for Vm, Initial residual = 5.64724e-07, Final residual = 5.27042e-16, No Iterations 4
ExecutionTime = 0.7 s  ClockTime = 1 s

Time = 0.199551

DEBUG cell=0 t=0.197309→0.199551 step=0.00224215 V=0.248679 u1=1.44927 u2=0.835016 u3=0 Iion=-0.416668
DEBUG cell=0 t=0.197309→0.199551 step=0.0201793 V=0.248679 u1=1.45176 u2=0.833451 u3=0 Iion=-0.416621
[5] Bidomain phiE reference debug: proc=5 point=(0.125 0.05 0.05) refCell=-1 ownsReference=0
[3] Bidomain phiE reference debug: proc=3 point=(0.125 0.05 0.05) refCell=2 ownsReference=1
[2] Bidomain phiE reference debug: proc=2 point=(0.125 0.05 0.05) refCell=-1 ownsReference=0
[4] Bidomain phiE reference debug: proc=4 point=(0.125 0.05 0.05) refCell=-1 ownsReference=0
[0] Bidomain phiE reference debug: proc=0 point=(0.125 0.05 0.05) refCell=-1 ownsReference=0
Bidomain phiE reference summary: ownerCount=1 ownerProc=3 point=(0.125 0.05 0.05)
PIMPLE: iteration 1
[1] Bidomain phiE reference debug: proc=1 point=(0.125 0.05 0.05) refCell=-1 ownsReference=0
[1] Bidomain phiE solve debug: proc=1 entering solve, refCell=-1 refValue=0 outerIter=1
[2] Bidomain phiE solve debug: proc=2 entering solve, refCell=-1 refValue=0 outerIter=1
[3] Bidomain phiE solve debug: proc=3 entering solve, refCell=2 refValue=0 outerIter=1
[4] Bidomain phiE solve debug: proc=4 entering solve, refCell=-1 refValue=0 outerIter=1
[0] Bidomain phiE solve debug: proc=0 entering solve, refCell=-1 refValue=0 outerIter=1
[5] Bidomain phiE solve debug: proc=5 entering solve, refCell=-1 refValue=0 outerIter=1
DICPCG:  Solving for phiE, Initial residual = 5.60499e-07, Final residual = 6.46847e-16, No Iterations 94
[0] Bidomain phiE solve debug: proc=0 completed solve, outerIter=1
[3] Bidomain phiE solve debug: proc=3 completed solve, outerIter=1
[4] Bidomain phiE solve debug: proc=4 completed solve, outerIter=1
[5] Bidomain phiE solve debug: proc=5 completed solve, outerIter=1
[2] Bidomain phiE solve debug: proc=2 completed solve, outerIter=1
[1] Bidomain phiE solve debug: proc=1 completed solve, outerIter=1
DICPCG:  Solving for Vm, Initial residual = 0.000401772, Final residual = 9.23322e-18, No Iterations 6
PIMPLE: iteration 2
[1] Bidomain phiE solve debug: proc=1 entering solve, refCell=-1 refValue=0 outerIter=2
[2] Bidomain phiE solve debug: proc=2 entering solve, refCell=-1 refValue=0 outerIter=2
[5] Bidomain phiE solve debug: proc=5 entering solve, refCell=-1 refValue=0 outerIter=2
[0] Bidomain phiE solve debug: proc=0 entering solve, refCell=-1 refValue=0 outerIter=2
[4] Bidomain phiE solve debug: proc=4 entering solve, refCell=-1 refValue=0 outerIter=2
[3] Bidomain phiE solve debug: proc=3 entering solve, refCell=2 refValue=0 outerIter=2
DICPCG:  Solving for phiE, Initial residual = 0.000398769, Final residual = 8.17703e-16, No Iterations 106
[0] Bidomain phiE solve debug: proc=0 completed solve, outerIter=2
[5] Bidomain phiE solve debug: proc=5 completed solve, outerIter=2
[4] Bidomain phiE solve debug: proc=4 completed solve, outerIter=2
[1] Bidomain phiE solve debug: proc=1 completed solve, outerIter=2
[2] Bidomain phiE solve debug: proc=2 completed solve, outerIter=2
[3] Bidomain phiE solve debug: proc=3 completed solve, outerIter=2
DICPCG:  Solving for Vm, Initial residual = 5.635e-07, Final residual = 5.259e-16, No Iterations 4

Bidomain manufactured-solution error summary (t = 0.199551):
-------------------------------------------------
Field     L1-error       L2-error       Linf-error
Vm        0.00329669   0.00449147   0.0130028
phiE      0.0517446   0.0530486   0.0839347
phiI      0.0518181   0.0523159   0.0719811
u1        0.000477099   0.000661293   0.00233849
u2        0.000207836   0.000284528   0.000829523
-------------------------------------------------
Bidomain manufactured PDE residuals evaluated on exact fields:
-------------------------------------------------
Equation  L1-residual    L2-residual    Linf-residual
Vm        0.00759555   0.0103441   0.0287195
phiE      8.67709e-09   1.1817e-08   3.28089e-08
-------------------------------------------------
ExecutionTime = 0.71 s  ClockTime = 1 s


End

Finalising parallel run
