/*---------------------------------------------------------------------------*\
| =========                 |                                                 |
| \\      /  F ield         | OpenFOAM: The Open Source CFD Toolbox           |
|  \\    /   O peration     | Version:  2412                                  |
|   \\  /    A nd           | Website:  www.openfoam.com                      |
|    \\/     M anipulation  |                                                 |
\*---------------------------------------------------------------------------*/
Build  : _8dbc61e11c-20241220 OPENFOAM=2412 version=v2412
Arch   : "LSB;label=32;scalar=64"
Exec   : cardiacFoam -parallel
Date   : Apr 09 2026
Time   : 22:16:53
Host   : macbook
PID    : 4975
I/O    : uncollated
Case   : /Users/simaocastro/cardiacFoamEPsacred/cardiacFoamsacred/tutorials/bidomainFDA
nProcs : 6
Hosts  :
(
    (macbook 6)
)
Pstream initialized with:
    floatTransfer      : false
    maxCommsSize       : 0
    nProcsSimpleSum    : 0
    nonBlockingExchange: 0 (tuning: 0)
    exchange algorithm : 0
    commsType          : nonBlocking
    polling iterations : 0
trapFpe: Floating point exception trapping enabled (FOAM_SIGFPE).
fileModificationChecking : Monitoring run-time modified files using timeStampMaster (fileModificationSkew 5, maxFileModificationPolls 20)
allowSystemOperations : Allowing user-supplied system call operations

// * * * * * * * * * * * * * * * * * * * * * * * * * * * * * * * * * * * * * //
Create time

Selecting physicsModel electroModel

Selecting myocardiumSolver bidomainSolver
Selecting electroVerificationModel manufacturedFDABidomainVerifier

Selecting myocardiumSolver bidomainSolver

conductivityIntracellular not found on disk, using value from "/Users/simaocastro/cardiacFoamEPsacred/cardiacFoamsacred/tutorials/bidomainFDA/processor0/../constant/electroProperties/bidomainSolverCoeffs"


conductivityExtracellular not found on disk, using value from "/Users/simaocastro/cardiacFoamEPsacred/cardiacFoamsacred/tutorials/bidomainFDA/processor0/../constant/electroProperties/bidomainSolverCoeffs"

Using verification model manufacturedFDABidomainVerifier.
Running preProcess with fields 3(u1 u2 u3).
Selecting electrophysicsAdvanceScheme staggeredElectrophysicsAdvanceScheme
Time = 0.000560538


PIMPLE: no residual control data found. Calculations will employ 2 corrector loops

DEBUG cell=0 t=0→0.000560538 step=0.000560538 V=0.989244 u1=1.98924 u2=1 u3=0 Iion=0
Selecting ODE solver RKF45
DEBUG cell=0 t=0→0.000560538 step=0.00504484 V=0.989244 u1=1.99008 u2=0.99944 u3=0 Iion=-1.81956
[2] Bidomain phiE reference debug: proc=2 point=(0.125 0.05 0.05) refCell=-1 ownsReference=0
[4] Bidomain phiE reference debug: proc=4 point=(0.125 0.05 0.05) refCell=-1 ownsReference=0
[1] Bidomain phiE reference debug: proc=1 point=(0.125 0.05 0.05) refCell=-1 ownsReference=0
[5] Bidomain phiE reference debug: proc=5 point=(0.125 0.05 0.05) refCell=-1 ownsReference=0
[3] Bidomain phiE reference debug: proc=3 point=(0.125 0.05 0.05) refCell=-1 ownsReference=0
[0] Bidomain phiE reference debug: proc=0 point=(0.125 0.05 0.05) refCell=546 ownsReference=1
Bidomain phiE reference summary: ownerCount=1 ownerProc=0 point=(0.125 0.05 0.05)
PIMPLE: iteration 1
[1] Bidomain phiE solve debug: proc=1 entering solve, refCell=-1 refValue=0 outerIter=1
[5] Bidomain phiE solve debug: proc=5 entering solve, refCell=-1 refValue=0 outerIter=1
[4] Bidomain phiE solve debug: proc=4 entering solve, refCell=-1 refValue=0 outerIter=1
[2] Bidomain phiE solve debug: proc=2 entering solve, refCell=-1 refValue=0 outerIter=1
[3] Bidomain phiE solve debug: proc=3 entering solve, refCell=-1 refValue=0 outerIter=1
[0] Bidomain phiE solve debug: proc=0 entering solve, refCell=546 refValue=0 outerIter=1
DICPCG:  Solving for phiE, Initial residual = 0.00419528, Final residual = 8.46069e-16, No Iterations 226
[2] Bidomain phiE solve debug: proc=2 completed solve, outerIter=1
[1] Bidomain phiE solve debug: proc=1 completed solve, outerIter=1
[0] Bidomain phiE solve debug: proc=0 completed solve, outerIter=1
[3] Bidomain phiE solve debug: proc=3 completed solve, outerIter=1
[5] Bidomain phiE solve debug: proc=5 completed solve, outerIter=1
[4] Bidomain phiE solve debug: proc=4 completed solve, outerIter=1
DICPCG:  Solving for Vm, Initial residual = 0.000135747, Final residual = 3.95332e-17, No Iterations 6
PIMPLE: iteration 2
[5] Bidomain phiE solve debug: proc=5 entering solve, refCell=-1 refValue=0 outerIter=2
[0] Bidomain phiE solve debug: proc=0 entering solve, refCell=546 refValue=0 outerIter=2
[1] Bidomain phiE solve debug: proc=1 entering solve, refCell=-1 refValue=0 outerIter=2
[3] Bidomain phiE solve debug: proc=3 entering solve, refCell=-1 refValue=0 outerIter=2
[4] Bidomain phiE solve debug: proc=4 entering solve, refCell=-1 refValue=0 outerIter=2
[2] Bidomain phiE solve debug: proc=2 entering solve, refCell=-1 refValue=0 outerIter=2
DICPCG:  Solving for phiE, Initial residual = 0.000135061, Final residual = 9.66973e-16, No Iterations 206
[3] Bidomain phiE solve debug: proc=3 completed solve, outerIter=2
[1] Bidomain phiE solve debug: proc=1 completed solve, outerIter=2
[5] Bidomain phiE solve debug: proc=5 completed solve, outerIter=2
[2] Bidomain phiE solve debug: proc=2 completed solve, outerIter=2
[0] Bidomain phiE solve debug: proc=0 completed solve, outerIter=2
[4] Bidomain phiE solve debug: proc=4 completed solve, outerIter=2
DICPCG:  Solving for Vm, Initial residual = 7.56239e-08, Final residual = 1.26665e-16, No Iterations 4
ExecutionTime = 0.17 s  ClockTime = 0 s

Time = 0.00112108

DEBUG cell=0 t=0.000560538→0.00112108 step=0.000560538 V=0.989513 u1=1.99008 u2=0.99944 u3=0 Iion=-1.81956
DEBUG cell=0 t=0.000560538→0.00112108 step=0.00504484 V=0.989513 u1=1.99092 u2=0.99888 u3=0 Iion=-1.81951
[1] Bidomain phiE reference debug: proc=1 point=(0.125 0.05 0.05) refCell=-1 ownsReference=0
[5] Bidomain phiE reference debug: proc=5 point=(0.125 0.05 0.05) refCell=-1 ownsReference=0
[2] Bidomain phiE reference debug: proc=2 point=(0.125 0.05 0.05) refCell=-1 ownsReference=0
[3] Bidomain phiE reference debug: proc=3 point=(0.125 0.05 0.05) refCell=-1 ownsReference=0
[0] Bidomain phiE reference debug: proc=0 point=(0.125 0.05 0.05) refCell=546 ownsReference=1
Bidomain phiE reference summary: ownerCount=1 ownerProc=0 point=(0.125 0.05 0.05)
[4] Bidomain phiE reference debug: proc=4 point=(0.125 0.05 0.05) refCell=-1 ownsReference=0
PIMPLE: iteration 1
[4] Bidomain phiE solve debug: proc=4 entering solve, refCell=-1 refValue=0 outerIter=1
[3] Bidomain phiE solve debug: proc=3 entering solve, refCell=-1 refValue=0 outerIter=1
[0] Bidomain phiE solve debug: proc=0 entering solve, refCell=546 refValue=0 outerIter=1
[1] Bidomain phiE solve debug: proc=1 entering solve, refCell=-1 refValue=0 outerIter=1
[2] Bidomain phiE solve debug: proc=2 entering solve, refCell=-1 refValue=0 outerIter=1
[5] Bidomain phiE solve debug: proc=5 entering solve, refCell=-1 refValue=0 outerIter=1
DICPCG:  Solving for phiE, Initial residual = 7.52411e-08, Final residual = 9.37011e-16, No Iterations 169
[1] Bidomain phiE solve debug: proc=1 completed solve, outerIter=1
[2] Bidomain phiE solve debug: proc=2 completed solve, outerIter=1
[3] Bidomain phiE solve debug: proc=3 completed solve, outerIter=1
[4] Bidomain phiE solve debug: proc=4 completed solve, outerIter=1
[5] Bidomain phiE solve debug: proc=5 completed solve, outerIter=1
[0] Bidomain phiE solve debug: proc=0 completed solve, outerIter=1
DICPCG:  Solving for Vm, Initial residual = 0.000135708, Final residual = 2.98914e-16, No Iterations 5
PIMPLE: iteration 2
[5] Bidomain phiE solve debug: proc=5 entering solve, refCell=-1 refValue=0 outerIter=2
[0] Bidomain phiE solve debug: proc=0 entering solve, refCell=546 refValue=0 outerIter=2
[4] Bidomain phiE solve debug: proc=4 entering solve, refCell=-1 refValue=0 outerIter=2
[1] Bidomain phiE solve debug: proc=1 entering solve, refCell=-1 refValue=0 outerIter=2
[3] Bidomain phiE solve debug: proc=3 entering solve, refCell=-1 refValue=0 outerIter=2
[2] Bidomain phiE solve debug: proc=2 entering solve, refCell=-1 refValue=0 outerIter=2
DICPCG:  Solving for phiE, Initial residual = 0.000135021, Final residual = 9.66644e-16, No Iterations 206
[4] Bidomain phiE solve debug: proc=4 completed solve, outerIter=2
[3] Bidomain phiE solve debug: proc=3 completed solve, outerIter=2
[1] Bidomain phiE solve debug: proc=1 completed solve, outerIter=2
[2] Bidomain phiE solve debug: proc=2 completed solve, outerIter=2
[5] Bidomain phiE solve debug: proc=5 completed solve, outerIter=2
[0] Bidomain phiE solve debug: proc=0 completed solve, outerIter=2
DICPCG:  Solving for Vm, Initial residual = 5.04148e-08, Final residual = 1.44596e-17, No Iterations 4
ExecutionTime = 0.26 s  ClockTime = 0 s

Time = 0.00168161

DEBUG cell=0 t=0.00112108→0.00168161 step=0.000560538 V=0.989782 u1=1.99092 u2=0.99888 u3=0 Iion=-1.81951
DEBUG cell=0 t=0.00112108→0.00168161 step=0.00504484 V=0.989782 u1=1.99176 u2=0.998321 u3=0 Iion=-1.81946
[5] Bidomain phiE reference debug: proc=5 point=(0.125 0.05 0.05) refCell=-1 ownsReference=0
[2] Bidomain phiE reference debug: proc=2 point=(0.125 0.05 0.05) refCell=-1 ownsReference=0
[0] Bidomain phiE reference debug: proc=0 point=(0.125 0.05 0.05) refCell=546 ownsReference=1
Bidomain phiE reference summary: ownerCount=1 ownerProc=0 point=(0.125 0.05 0.05)
[4] Bidomain phiE reference debug: proc=4 point=(0.125 0.05 0.05) refCell=-1 ownsReference=0
[3] Bidomain phiE reference debug: proc=3 point=(0.125 0.05 0.05) refCell=-1 ownsReference=0
[1] Bidomain phiE reference debug: proc=1 point=(0.125 0.05 0.05) refCell=-1 ownsReference=0
PIMPLE: iteration 1
[5] Bidomain phiE solve debug: proc=5 entering solve, refCell=-1 refValue=0 outerIter=1
[4] Bidomain phiE solve debug: proc=4 entering solve, refCell=-1 refValue=0 outerIter=1
[1] Bidomain phiE solve debug: proc=1 entering solve, refCell=-1 refValue=0 outerIter=1
[2] Bidomain phiE solve debug: proc=2 entering solve, refCell=-1 refValue=0 outerIter=1
[0] Bidomain phiE solve debug: proc=0 entering solve, refCell=546 refValue=0 outerIter=1
[3] Bidomain phiE solve debug: proc=3 entering solve, refCell=-1 refValue=0 outerIter=1
DICPCG:  Solving for phiE, Initial residual = 5.01596e-08, Final residual = 9.53693e-16, No Iterations 166
[5] Bidomain phiE solve debug: proc=5 completed solve, outerIter=1
[3] Bidomain phiE solve debug: proc=3 completed solve, outerIter=1
[2] Bidomain phiE solve debug: proc=2 completed solve, outerIter=1
[1] Bidomain phiE solve debug: proc=1 completed solve, outerIter=1
[4] Bidomain phiE solve debug: proc=4 completed solve, outerIter=1
[0] Bidomain phiE solve debug: proc=0 completed solve, outerIter=1
DICPCG:  Solving for Vm, Initial residual = 0.000135634, Final residual = 2.98751e-16, No Iterations 5
PIMPLE: iteration 2
[0] Bidomain phiE solve debug: proc=0 entering solve, refCell=546 refValue=0 outerIter=2
[2] Bidomain phiE solve debug: proc=2 entering solve, refCell=-1 refValue=0 outerIter=2
[4] Bidomain phiE solve debug: proc=4 entering solve, refCell=-1 refValue=0 outerIter=2
[1] Bidomain phiE solve debug: proc=1 entering solve, refCell=-1 refValue=0 outerIter=2
[3] Bidomain phiE solve debug: proc=3 entering solve, refCell=-1 refValue=0 outerIter=2
[5] Bidomain phiE solve debug: proc=5 entering solve, refCell=-1 refValue=0 outerIter=2
DICPCG:  Solving for phiE, Initial residual = 0.000134948, Final residual = 9.66082e-16, No Iterations 206
[2] Bidomain phiE solve debug: proc=2 completed solve, outerIter=2
[5] Bidomain phiE solve debug: proc=5 completed solve, outerIter=2
[3] Bidomain phiE solve debug: proc=3 completed solve, outerIter=2
[0] Bidomain phiE solve debug: proc=0 completed solve, outerIter=2
[4] Bidomain phiE solve debug: proc=4 completed solve, outerIter=2
[1] Bidomain phiE solve debug: proc=1 completed solve, outerIter=2
DICPCG:  Solving for Vm, Initial residual = 5.03874e-08, Final residual = 1.44517e-17, No Iterations 4
ExecutionTime = 0.36 s  ClockTime = 0 s

Time = 0.00224215

DEBUG cell=0 t=0.00168161→0.00224215 step=0.000560538 V=0.99005 u1=1.99176 u2=0.998321 u3=0 Iion=-1.81946
DEBUG cell=0 t=0.00168161→0.00224215 step=0.00504484 V=0.99005 u1=1.9926 u2=0.997763 u3=0 Iion=-1.81941
[0] Bidomain phiE reference debug: proc=0 point=(0.125 0.05 0.05) refCell=546 ownsReference=1
Bidomain phiE reference summary: ownerCount=1 ownerProc=0 point=(0.125 0.05 0.05)
[5] Bidomain phiE reference debug: proc=5 point=(0.125 0.05 0.05) refCell=-1 ownsReference=0
[3] Bidomain phiE reference debug: proc=3 point=(0.125 0.05 0.05) refCell=-1 ownsReference=0
[1] Bidomain phiE reference debug: proc=1 point=(0.125 0.05 0.05) refCell=-1 ownsReference=0
[4] Bidomain phiE reference debug: proc=4 point=(0.125 0.05 0.05) refCell=-1 ownsReference=0
[2] Bidomain phiE reference debug: proc=2 point=(0.125 0.05 0.05) refCell=-1 ownsReference=0
PIMPLE: iteration 1
[4] Bidomain phiE solve debug: proc=4 entering solve, refCell=-1 refValue=0 outerIter=1
[5] Bidomain phiE solve debug: proc=5 entering solve, refCell=-1 refValue=0 outerIter=1
[2] Bidomain phiE solve debug: proc=2 entering solve, refCell=-1 refValue=0 outerIter=1
[3] Bidomain phiE solve debug: proc=3 entering solve, refCell=-1 refValue=0 outerIter=1
[1] Bidomain phiE solve debug: proc=1 entering solve, refCell=-1 refValue=0 outerIter=1
[0] Bidomain phiE solve debug: proc=0 entering solve, refCell=546 refValue=0 outerIter=1
DICPCG:  Solving for phiE, Initial residual = 5.01324e-08, Final residual = 9.56451e-16, No Iterations 166
[4] Bidomain phiE solve debug: proc=4 completed solve, outerIter=1
[1] Bidomain phiE solve debug: proc=1 completed solve, outerIter=1
[2] Bidomain phiE solve debug: proc=2 completed solve, outerIter=1
[5] Bidomain phiE solve debug: proc=5 completed solve, outerIter=1
[3] Bidomain phiE solve debug: proc=3 completed solve, outerIter=1
[0] Bidomain phiE solve debug: proc=0 completed solve, outerIter=1
DICPCG:  Solving for Vm, Initial residual = 0.000135558, Final residual = 2.98582e-16, No Iterations 5
PIMPLE: iteration 2
[0] Bidomain phiE solve debug: proc=0 entering solve, refCell=546 refValue=0 outerIter=2
[5] Bidomain phiE solve debug: proc=5 entering solve, refCell=-1 refValue=0 outerIter=2
[3] Bidomain phiE solve debug: proc=3 entering solve, refCell=-1 refValue=0 outerIter=2
[2] Bidomain phiE solve debug: proc=2 entering solve, refCell=-1 refValue=0 outerIter=2
[4] Bidomain phiE solve debug: proc=4 entering solve, refCell=-1 refValue=0 outerIter=2
[1] Bidomain phiE solve debug: proc=1 entering solve, refCell=-1 refValue=0 outerIter=2
DICPCG:  Solving for phiE, Initial residual = 0.000134872, Final residual = 9.65483e-16, No Iterations 206
[0] Bidomain phiE solve debug: proc=0 completed solve, outerIter=2
[5] Bidomain phiE solve debug: proc=5 completed solve, outerIter=2
[4] Bidomain phiE solve debug: proc=4 completed solve, outerIter=2
[3] Bidomain phiE solve debug: proc=3 completed solve, outerIter=2
[1] Bidomain phiE solve debug: proc=1 completed solve, outerIter=2
[2] Bidomain phiE solve debug: proc=2 completed solve, outerIter=2
DICPCG:  Solving for Vm, Initial residual = 5.03589e-08, Final residual = 1.44436e-17, No Iterations 4
ExecutionTime = 0.46 s  ClockTime = 0 s

Time = 0.00280269

DEBUG cell=0 t=0.00224215→0.00280269 step=0.000560538 V=0.990319 u1=1.9926 u2=0.997763 u3=0 Iion=-1.81941
DEBUG cell=0 t=0.00224215→0.00280269 step=0.00504484 V=0.990319 u1=1.99343 u2=0.997205 u3=0 Iion=-1.81936
[5] Bidomain phiE reference debug: proc=5 point=(0.125 0.05 0.05) refCell=-1 ownsReference=0
[0] Bidomain phiE reference debug: proc=0 point=(0.125 0.05 0.05) refCell=546 ownsReference=1
[2] Bidomain phiE reference debug: proc=2 point=(0.125 0.05 0.05) refCell=-1 ownsReference=0
[4] Bidomain phiE reference debug: proc=4 point=(0.125 0.05 0.05) refCell=-1 ownsReference=0
[3] Bidomain phiE reference debug: proc=3 point=(0.125 0.05 0.05) refCell=-1 ownsReference=0
[1] Bidomain phiE reference debug: proc=1 point=(0.125 0.05 0.05) refCell=-1 ownsReference=0
Bidomain phiE reference summary: ownerCount=1 ownerProc=0 point=(0.125 0.05 0.05)
PIMPLE: iteration 1
[0] Bidomain phiE solve debug: proc=0 entering solve, refCell=546 refValue=0 outerIter=1
[2] Bidomain phiE solve debug: proc=2 entering solve, refCell=-1 refValue=0 outerIter=1
[4] Bidomain phiE solve debug: proc=4 entering solve, refCell=-1 refValue=0 outerIter=1
[1] Bidomain phiE solve debug: proc=1 entering solve, refCell=-1 refValue=0 outerIter=1
[3] Bidomain phiE solve debug: proc=3 entering solve, refCell=-1 refValue=0 outerIter=1
[5] Bidomain phiE solve debug: proc=5 entering solve, refCell=-1 refValue=0 outerIter=1
DICPCG:  Solving for phiE, Initial residual = 5.01041e-08, Final residual = 9.57454e-16, No Iterations 166
[2] Bidomain phiE solve debug: proc=2 completed solve, outerIter=1
[1] Bidomain phiE solve debug: proc=1 completed solve, outerIter=1
[3] Bidomain phiE solve debug: proc=3 completed solve, outerIter=1
[0] Bidomain phiE solve debug: proc=0 completed solve, outerIter=1
[5] Bidomain phiE solve debug: proc=5 completed solve, outerIter=1
[4] Bidomain phiE solve debug: proc=4 completed solve, outerIter=1
DICPCG:  Solving for Vm, Initial residual = 0.00013548, Final residual = 2.98411e-16, No Iterations 5
PIMPLE: iteration 2
[4] Bidomain phiE solve debug: proc=4 entering solve, refCell=-1 refValue=0 outerIter=2
[0] Bidomain phiE solve debug: proc=0 entering solve, refCell=546 refValue=0 outerIter=2
[3] Bidomain phiE solve debug: proc=3 entering solve, refCell=-1 refValue=0 outerIter=2
[5] Bidomain phiE solve debug: proc=5 entering solve, refCell=-1 refValue=0 outerIter=2
[2] Bidomain phiE solve debug: proc=2 entering solve, refCell=-1 refValue=0 outerIter=2
[1] Bidomain phiE solve debug: proc=1 entering solve, refCell=-1 refValue=0 outerIter=2
DICPCG:  Solving for phiE, Initial residual = 0.000134795, Final residual = 9.64877e-16, No Iterations 206
[4] Bidomain phiE solve debug: proc=4 completed solve, outerIter=2
[2] Bidomain phiE solve debug: proc=2 completed solve, outerIter=2
[5] Bidomain phiE solve debug: proc=5 completed solve, outerIter=2
[1] Bidomain phiE solve debug: proc=1 completed solve, outerIter=2
[0] Bidomain phiE solve debug: proc=0 completed solve, outerIter=2
[3] Bidomain phiE solve debug: proc=3 completed solve, outerIter=2
DICPCG:  Solving for Vm, Initial residual = 5.03301e-08, Final residual = 1.44353e-17, No Iterations 4
ExecutionTime = 0.56 s  ClockTime = 0 s

Time = 0.00336323

DEBUG cell=0 t=0.00280269→0.00336323 step=0.000560538 V=0.990587 u1=1.99343 u2=0.997205 u3=0 Iion=-1.81936
DEBUG cell=0 t=0.00280269→0.00336323 step=0.00504484 V=0.990587 u1=1.99427 u2=0.996648 u3=0 Iion=-1.8193
[1] Bidomain phiE reference debug: proc=1 point=(0.125 0.05 0.05) refCell=-1 ownsReference=0
[5] Bidomain phiE reference debug: proc=5 point=(0.125 0.05 0.05) refCell=-1 ownsReference=0
[0] Bidomain phiE reference debug: proc=0 point=(0.125 0.05 0.05) refCell=546 ownsReference=1
Bidomain phiE reference summary: ownerCount=1 ownerProc=0 point=(0.125 0.05 0.05)
[4] Bidomain phiE reference debug: proc=4 point=(0.125 0.05 0.05) refCell=-1 ownsReference=0
[3] Bidomain phiE reference debug: proc=3 point=(0.125 0.05 0.05) refCell=-1 ownsReference=0
[2] Bidomain phiE reference debug: proc=2 point=(0.125 0.05 0.05) refCell=-1 ownsReference=0
PIMPLE: iteration 1
[1] Bidomain phiE solve debug: proc=1 entering solve, refCell=-1 refValue=0 outerIter=1
[4] Bidomain phiE solve debug: proc=4 entering solve, refCell=-1 refValue=0 outerIter=1
[0] Bidomain phiE solve debug: proc=0 entering solve, refCell=546 refValue=0 outerIter=1
[3] Bidomain phiE solve debug: proc=3 entering solve, refCell=-1 refValue=0 outerIter=1
[5] Bidomain phiE solve debug: proc=5 entering solve, refCell=-1 refValue=0 outerIter=1
[2] Bidomain phiE solve debug: proc=2 entering solve, refCell=-1 refValue=0 outerIter=1
DICPCG:  Solving for phiE, Initial residual = 5.00754e-08, Final residual = 9.50571e-16, No Iterations 166
[0] Bidomain phiE solve debug: proc=0 completed solve, outerIter=1
[1] Bidomain phiE solve debug: proc=1 completed solve, outerIter=1
[3] Bidomain phiE solve debug: proc=3 completed solve, outerIter=1
[5] Bidomain phiE solve debug: proc=5 completed solve, outerIter=1
[4] Bidomain phiE solve debug: proc=4 completed solve, outerIter=1
[2] Bidomain phiE solve debug: proc=2 completed solve, outerIter=1
DICPCG:  Solving for Vm, Initial residual = 0.000135402, Final residual = 2.98239e-16, No Iterations 5
PIMPLE: iteration 2
[1] Bidomain phiE solve debug: proc=1 entering solve, refCell=-1 refValue=0 outerIter=2
[0] Bidomain phiE solve debug: proc=0 entering solve, refCell=546 refValue=0 outerIter=2
[5] Bidomain phiE solve debug: proc=5 entering solve, refCell=-1 refValue=0 outerIter=2
[4] Bidomain phiE solve debug: proc=4 entering solve, refCell=-1 refValue=0 outerIter=2
[2] Bidomain phiE solve debug: proc=2 entering solve, refCell=-1 refValue=0 outerIter=2
[3] Bidomain phiE solve debug: proc=3 entering solve, refCell=-1 refValue=0 outerIter=2
DICPCG:  Solving for phiE, Initial residual = 0.000134717, Final residual = 9.64239e-16, No Iterations 206
[1] Bidomain phiE solve debug: proc=1 completed solve, outerIter=2
[5] Bidomain phiE solve debug: proc=5 completed solve, outerIter=2
[2] Bidomain phiE solve debug: proc=2 completed solve, outerIter=2
[3] Bidomain phiE solve debug: proc=3 completed solve, outerIter=2
[4] Bidomain phiE solve debug: proc=4 completed solve, outerIter=2
[0] Bidomain phiE solve debug: proc=0 completed solve, outerIter=2
DICPCG:  Solving for Vm, Initial residual = 5.03012e-08, Final residual = 1.4427e-17, No Iterations 4
ExecutionTime = 0.67 s  ClockTime = 0 s

Time = 0.00392377

DEBUG cell=0 t=0.00336323→0.00392377 step=0.000560538 V=0.990856 u1=1.99427 u2=0.996648 u3=0 Iion=-1.8193
DEBUG cell=0 t=0.00336323→0.00392377 step=0.00504484 V=0.990856 u1=1.99511 u2=0.996091 u3=0 Iion=-1.81925
[1] Bidomain phiE reference debug: proc=1 point=(0.125 0.05 0.05) refCell=-1 ownsReference=0
[5] Bidomain phiE reference debug: proc=5 point=(0.125 0.05 0.05) refCell=-1 ownsReference=0
[0] Bidomain phiE reference debug: proc=0 point=(0.125 0.05 0.05) refCell=546 ownsReference=1
Bidomain phiE reference summary: ownerCount=1 ownerProc=0 point=(0.125 0.05 0.05)
PIMPLE: iteration 1
[2] Bidomain phiE reference debug: proc=2 point=(0.125 0.05 0.05) refCell=-1 ownsReference=0
[4] Bidomain phiE reference debug: proc=4 point=(0.125 0.05 0.05) refCell=-1 ownsReference=0
[3] Bidomain phiE reference debug: proc=3 point=(0.125 0.05 0.05) refCell=-1 ownsReference=0
[1] Bidomain phiE solve debug: proc=1 entering solve, refCell=-1 refValue=0 outerIter=1
[0] Bidomain phiE solve debug: proc=0 entering solve, refCell=546 refValue=0 outerIter=1
[5] Bidomain phiE solve debug: proc=5 entering solve, refCell=-1 refValue=0 outerIter=1
[3] Bidomain phiE solve debug: proc=3 entering solve, refCell=-1 refValue=0 outerIter=1
[4] Bidomain phiE solve debug: proc=4 entering solve, refCell=-1 refValue=0 outerIter=1
[2] Bidomain phiE solve debug: proc=2 entering solve, refCell=-1 refValue=0 outerIter=1
DICPCG:  Solving for phiE, Initial residual = 5.00466e-08, Final residual = 9.36102e-16, No Iterations 166
[4] Bidomain phiE solve debug: proc=4 completed solve, outerIter=1
[3] Bidomain phiE solve debug: proc=3 completed solve, outerIter=1
[1] Bidomain phiE solve debug: proc=1 completed solve, outerIter=1
[2] Bidomain phiE solve debug: proc=2 completed solve, outerIter=1
[0] Bidomain phiE solve debug: proc=0 completed solve, outerIter=1
[5] Bidomain phiE solve debug: proc=5 completed solve, outerIter=1
DICPCG:  Solving for Vm, Initial residual = 0.000135324, Final residual = 2.98068e-16, No Iterations 5
PIMPLE: iteration 2
[5] Bidomain phiE solve debug: proc=5 entering solve, refCell=-1 refValue=0 outerIter=2
[2] Bidomain phiE solve debug: proc=2 entering solve, refCell=-1 refValue=0 outerIter=2
[0] Bidomain phiE solve debug: proc=0 entering solve, refCell=546 refValue=0 outerIter=2
[4] Bidomain phiE solve debug: proc=4 entering solve, refCell=-1 refValue=0 outerIter=2
[1] Bidomain phiE solve debug: proc=1 entering solve, refCell=-1 refValue=0 outerIter=2
[3] Bidomain phiE solve debug: proc=3 entering solve, refCell=-1 refValue=0 outerIter=2
DICPCG:  Solving for phiE, Initial residual = 0.00013464, Final residual = 9.63684e-16, No Iterations 206
[2] Bidomain phiE solve debug: proc=2 completed solve, outerIter=2
[5] Bidomain phiE solve debug: proc=5 completed solve, outerIter=2
[1] Bidomain phiE solve debug: proc=1 completed solve, outerIter=2
[0] Bidomain phiE solve debug: proc=0 completed solve, outerIter=2
[3] Bidomain phiE solve debug: proc=3 completed solve, outerIter=2
[4] Bidomain phiE solve debug: proc=4 completed solve, outerIter=2
DICPCG:  Solving for Vm, Initial residual = 5.02723e-08, Final residual = 1.44187e-17, No Iterations 4
ExecutionTime = 0.8 s  ClockTime = 1 s

Time = 0.0044843

DEBUG cell=0 t=0.00392377→0.0044843 step=0.000560538 V=0.991124 u1=1.99511 u2=0.996091 u3=0 Iion=-1.81925
DEBUG cell=0 t=0.00392377→0.0044843 step=0.00504484 V=0.991124 u1=1.99595 u2=0.995535 u3=0 Iion=-1.8192
[1] Bidomain phiE reference debug: proc=1 point=(0.125 0.05 0.05) refCell=-1 ownsReference=0
[5] Bidomain phiE reference debug: proc=5 point=(0.125 0.05 0.05) refCell=-1 ownsReference=0
[0] Bidomain phiE reference debug: proc=0 point=(0.125 0.05 0.05) refCell=546 ownsReference=1
Bidomain phiE reference summary: ownerCount=1 ownerProc=0 point=(0.125 0.05 0.05)
[2] Bidomain phiE reference debug: proc=2 point=(0.125 0.05 0.05) refCell=-1 ownsReference=0
[4] Bidomain phiE reference debug: proc=4 point=(0.125 0.05 0.05) refCell=-1 ownsReference=0
[3] Bidomain phiE reference debug: proc=3 point=(0.125 0.05 0.05) refCell=-1 ownsReference=0
PIMPLE: iteration 1
[5] Bidomain phiE solve debug: proc=5 entering solve, refCell=-1 refValue=0 outerIter=1
[0] Bidomain phiE solve debug: proc=0 entering solve, refCell=546 refValue=0 outerIter=1
[2] Bidomain phiE solve debug: proc=2 entering solve, refCell=-1 refValue=0 outerIter=1
[4] Bidomain phiE solve debug: proc=4 entering solve, refCell=-1 refValue=0 outerIter=1
[1] Bidomain phiE solve debug: proc=1 entering solve, refCell=-1 refValue=0 outerIter=1
[3] Bidomain phiE solve debug: proc=3 entering solve, refCell=-1 refValue=0 outerIter=1
DICPCG:  Solving for phiE, Initial residual = 5.00178e-08, Final residual = 9.38738e-16, No Iterations 166
[5] Bidomain phiE solve debug: proc=5 completed solve, outerIter=1
[1] Bidomain phiE solve debug: proc=1 completed solve, outerIter=1
[3] Bidomain phiE solve debug: proc=3 completed solve, outerIter=1
[4] Bidomain phiE solve debug: proc=4 completed solve, outerIter=1
[0] Bidomain phiE solve debug: proc=0 completed solve, outerIter=1
[2] Bidomain phiE solve debug: proc=2 completed solve, outerIter=1
DICPCG:  Solving for Vm, Initial residual = 0.000135247, Final residual = 2.97896e-16, No Iterations 5
PIMPLE: iteration 2
[4] Bidomain phiE solve debug: proc=4 entering solve, refCell=-1 refValue=0 outerIter=2
[0] Bidomain phiE solve debug: proc=0 entering solve, refCell=546 refValue=0 outerIter=2
[1] Bidomain phiE solve debug: proc=1 entering solve, refCell=-1 refValue=0 outerIter=2
[2] Bidomain phiE solve debug: proc=2 entering solve, refCell=-1 refValue=0 outerIter=2
[3] Bidomain phiE solve debug: proc=3 entering solve, refCell=-1 refValue=0 outerIter=2
[5] Bidomain phiE solve debug: proc=5 entering solve, refCell=-1 refValue=0 outerIter=2
DICPCG:  Solving for phiE, Initial residual = 0.000134562, Final residual = 9.63094e-16, No Iterations 206
[0] Bidomain phiE solve debug: proc=0 completed solve, outerIter=2
[2] Bidomain phiE solve debug: proc=2 completed solve, outerIter=2
[5] Bidomain phiE solve debug: proc=5 completed solve, outerIter=2
[3] Bidomain phiE solve debug: proc=3 completed solve, outerIter=2
[4] Bidomain phiE solve debug: proc=4 completed solve, outerIter=2
[1] Bidomain phiE solve debug: proc=1 completed solve, outerIter=2
DICPCG:  Solving for Vm, Initial residual = 5.02433e-08, Final residual = 1.44104e-17, No Iterations 4
ExecutionTime = 0.92 s  ClockTime = 1 s

Time = 0.00504484

DEBUG cell=0 t=0.0044843→0.00504484 step=0.000560538 V=0.991393 u1=1.99595 u2=0.995535 u3=0 Iion=-1.8192
DEBUG cell=0 t=0.0044843→0.00504484 step=0.00504484 V=0.991393 u1=1.99678 u2=0.99498 u3=0 Iion=-1.81915
[3] Bidomain phiE reference debug: proc=3 point=(0.125 0.05 0.05) refCell=-1 ownsReference=0
[0] Bidomain phiE reference debug: proc=0 point=(0.125 0.05 0.05) refCell=546 ownsReference=1
[5] Bidomain phiE reference debug: proc=5 point=(0.125 0.05 0.05) refCell=-1 ownsReference=0
[4] Bidomain phiE reference debug: proc=4 point=(0.125 0.05 0.05) refCell=-1 ownsReference=0
[2] Bidomain phiE reference debug: proc=2 point=(0.125 0.05 0.05) refCell=-1 ownsReference=0
[1] Bidomain phiE reference debug: proc=1 point=(0.125 0.05 0.05) refCell=-1 ownsReference=0
Bidomain phiE reference summary: ownerCount=1 ownerProc=0 point=(0.125 0.05 0.05)
PIMPLE: iteration 1
[3] Bidomain phiE solve debug: proc=3 entering solve, refCell=-1 refValue=0 outerIter=1
[5] Bidomain phiE solve debug: proc=5 entering solve, refCell=-1 refValue=0 outerIter=1
[1] Bidomain phiE solve debug: proc=1 entering solve, refCell=-1 refValue=0 outerIter=1
[2] Bidomain phiE solve debug: proc=2 entering solve, refCell=-1 refValue=0 outerIter=1
[4] Bidomain phiE solve debug: proc=4 entering solve, refCell=-1 refValue=0 outerIter=1
[0] Bidomain phiE solve debug: proc=0 entering solve, refCell=546 refValue=0 outerIter=1
DICPCG:  Solving for phiE, Initial residual = 4.99891e-08, Final residual = 9.4732e-16, No Iterations 166
[0] Bidomain phiE solve debug: proc=0 completed solve, outerIter=1
[1] Bidomain phiE solve debug: proc=1 completed solve, outerIter=1
[4] Bidomain phiE solve debug: proc=4 completed solve, outerIter=1
[3] Bidomain phiE solve debug: proc=3 completed solve, outerIter=1
[5] Bidomain phiE solve debug: proc=5 completed solve, outerIter=1
[2] Bidomain phiE solve debug: proc=2 completed solve, outerIter=1
DICPCG:  Solving for Vm, Initial residual = 0.000135169, Final residual = 2.97724e-16, No Iterations 5
PIMPLE: iteration 2
[0] Bidomain phiE solve debug: proc=0 entering solve, refCell=546 refValue=0 outerIter=2
[1] Bidomain phiE solve debug: proc=1 entering solve, refCell=-1 refValue=0 outerIter=2
[3] Bidomain phiE solve debug: proc=3 entering solve, refCell=-1 refValue=0 outerIter=2
[5] Bidomain phiE solve debug: proc=5 entering solve, refCell=-1 refValue=0 outerIter=2
[2] Bidomain phiE solve debug: proc=2 entering solve, refCell=-1 refValue=0 outerIter=2
[4] Bidomain phiE solve debug: proc=4 entering solve, refCell=-1 refValue=0 outerIter=2
DICPCG:  Solving for phiE, Initial residual = 0.000134485, Final residual = 9.62476e-16, No Iterations 206
[0] Bidomain phiE solve debug: proc=0 completed solve, outerIter=2
[1] Bidomain phiE solve debug: proc=1 completed solve, outerIter=2
[4] Bidomain phiE solve debug: proc=4 completed solve, outerIter=2
[3] Bidomain phiE solve debug: proc=3 completed solve, outerIter=2
[2] Bidomain phiE solve debug: proc=2 completed solve, outerIter=2
[5] Bidomain phiE solve debug: proc=5 completed solve, outerIter=2
DICPCG:  Solving for Vm, Initial residual = 5.02145e-08, Final residual = 1.44021e-17, No Iterations 4
ExecutionTime = 1.04 s  ClockTime = 1 s

Time = 0.00560538

DEBUG cell=0 t=0.00504484→0.00560538 step=0.000560538 V=0.991661 u1=1.99678 u2=0.99498 u3=0 Iion=-1.81915
DEBUG cell=0 t=0.00504484→0.00560538 step=0.00504484 V=0.991661 u1=1.99762 u2=0.994425 u3=0 Iion=-1.8191
[1] Bidomain phiE reference debug: proc=1 point=(0.125 0.05 0.05) refCell=-1 ownsReference=0
[5] Bidomain phiE reference debug: proc=5 point=(0.125 0.05 0.05) refCell=-1 ownsReference=0
[0] Bidomain phiE reference debug: proc=0 point=(0.125 0.05 0.05) refCell=546 ownsReference=1
[4] Bidomain phiE reference debug: proc=4 point=(0.125 0.05 0.05) refCell=-1 ownsReference=0
[3] Bidomain phiE reference debug: proc=3 point=(0.125 0.05 0.05) refCell=-1 ownsReference=0
[2] Bidomain phiE reference debug: proc=2 point=(0.125 0.05 0.05) refCell=-1 ownsReference=0
Bidomain phiE reference summary: ownerCount=1 ownerProc=0 point=(0.125 0.05 0.05)
PIMPLE: iteration 1
[2] Bidomain phiE solve debug: proc=2 entering solve, refCell=-1 refValue=0 outerIter=1
[1] Bidomain phiE solve debug: proc=1 entering solve, refCell=-1 refValue=0 outerIter=1
[4] Bidomain phiE solve debug: proc=4 entering solve, refCell=-1 refValue=0 outerIter=1
[0] Bidomain phiE solve debug: proc=0 entering solve, refCell=546 refValue=0 outerIter=1
[3] Bidomain phiE solve debug: proc=3 entering solve, refCell=-1 refValue=0 outerIter=1
[5] Bidomain phiE solve debug: proc=5 entering solve, refCell=-1 refValue=0 outerIter=1
DICPCG:  Solving for phiE, Initial residual = 4.99603e-08, Final residual = 9.4087e-16, No Iterations 166
[1] Bidomain phiE solve debug: proc=1 completed solve, outerIter=1
[5] Bidomain phiE solve debug: proc=5 completed solve, outerIter=1
[4] Bidomain phiE solve debug: proc=4 completed solve, outerIter=1
[0] Bidomain phiE solve debug: proc=0 completed solve, outerIter=1
[2] Bidomain phiE solve debug: proc=2 completed solve, outerIter=1
[3] Bidomain phiE solve debug: proc=3 completed solve, outerIter=1
DICPCG:  Solving for Vm, Initial residual = 0.000135091, Final residual = 2.97553e-16, No Iterations 5
PIMPLE: iteration 2
[0] Bidomain phiE solve debug: proc=0 entering solve, refCell=546 refValue=0 outerIter=2
[1] Bidomain phiE solve debug: proc=1 entering solve, refCell=-1 refValue=0 outerIter=2
[4] Bidomain phiE solve debug: proc=4 entering solve, refCell=-1 refValue=0 outerIter=2
[5] Bidomain phiE solve debug: proc=5 entering solve, refCell=-1 refValue=0 outerIter=2
[3] Bidomain phiE solve debug: proc=3 entering solve, refCell=-1 refValue=0 outerIter=2
[2] Bidomain phiE solve debug: proc=2 entering solve, refCell=-1 refValue=0 outerIter=2
DICPCG:  Solving for phiE, Initial residual = 0.000134408, Final residual = 9.61855e-16, No Iterations 206
[2] Bidomain phiE solve debug: proc=2 completed solve, outerIter=2
[4] Bidomain phiE solve debug: proc=4 completed solve, outerIter=2
[0] Bidomain phiE solve debug: proc=0 completed solve, outerIter=2
[5] Bidomain phiE solve debug: proc=5 completed solve, outerIter=2
[3] Bidomain phiE solve debug: proc=3 completed solve, outerIter=2
[1] Bidomain phiE solve debug: proc=1 completed solve, outerIter=2
DICPCG:  Solving for Vm, Initial residual = 5.01856e-08, Final residual = 1.43938e-17, No Iterations 4
ExecutionTime = 1.18 s  ClockTime = 1 s

Time = 0.00616592

DEBUG cell=0 t=0.00560538→0.00616592 step=0.000560538 V=0.991929 u1=1.99762 u2=0.994425 u3=0 Iion=-1.8191
DEBUG cell=0 t=0.00560538→0.00616592 step=0.00504484 V=0.991929 u1=1.99846 u2=0.993871 u3=0 Iion=-1.81905
[5] Bidomain phiE reference debug: proc=5 point=(0.125 0.05 0.05) refCell=-1 ownsReference=0
[0] Bidomain phiE reference debug: proc=0 point=(0.125 0.05 0.05) refCell=546 ownsReference=1
[3] Bidomain phiE reference debug: proc=3 point=(0.125 0.05 0.05) refCell=-1 ownsReference=0
[4] Bidomain phiE reference debug: proc=4 point=(0.125 0.05 0.05) refCell=-1 ownsReference=0
Bidomain phiE reference summary: ownerCount=1 ownerProc=0 point=(0.125 0.05 0.05)
[1] Bidomain phiE reference debug: proc=1 point=(0.125 0.05 0.05) refCell=-1 ownsReference=0
[2] Bidomain phiE reference debug: proc=2 point=(0.125 0.05 0.05) refCell=-1 ownsReference=0
PIMPLE: iteration 1
[5] Bidomain phiE solve debug: proc=5 entering solve, refCell=-1 refValue=0 outerIter=1
[1] Bidomain phiE solve debug: proc=1 entering solve, refCell=-1 refValue=0 outerIter=1
[0] Bidomain phiE solve debug: proc=0 entering solve, refCell=546 refValue=0 outerIter=1
[2] Bidomain phiE solve debug: proc=2 entering solve, refCell=-1 refValue=0 outerIter=1
[4] Bidomain phiE solve debug: proc=4 entering solve, refCell=-1 refValue=0 outerIter=1
[3] Bidomain phiE solve debug: proc=3 entering solve, refCell=-1 refValue=0 outerIter=1
DICPCG:  Solving for phiE, Initial residual = 4.99316e-08, Final residual = 9.32442e-16, No Iterations 166
[5] Bidomain phiE solve debug: proc=5 completed solve, outerIter=1
[0] Bidomain phiE solve debug: proc=0 completed solve, outerIter=1
[3] Bidomain phiE solve debug: proc=3 completed solve, outerIter=1
[2] Bidomain phiE solve debug: proc=2 completed solve, outerIter=1
[1] Bidomain phiE solve debug: proc=1 completed solve, outerIter=1
[4] Bidomain phiE solve debug: proc=4 completed solve, outerIter=1
DICPCG:  Solving for Vm, Initial residual = 0.000135014, Final residual = 2.97382e-16, No Iterations 5
PIMPLE: iteration 2
[0] Bidomain phiE solve debug: proc=0 entering solve, refCell=546 refValue=0 outerIter=2
[5] Bidomain phiE solve debug: proc=5 entering solve, refCell=-1 refValue=0 outerIter=2
[2] Bidomain phiE solve debug: proc=2 entering solve, refCell=-1 refValue=0 outerIter=2
[3] Bidomain phiE solve debug: proc=3 entering solve, refCell=-1 refValue=0 outerIter=2
[1] Bidomain phiE solve debug: proc=1 entering solve, refCell=-1 refValue=0 outerIter=2
[4] Bidomain phiE solve debug: proc=4 entering solve, refCell=-1 refValue=0 outerIter=2
DICPCG:  Solving for phiE, Initial residual = 0.00013433, Final residual = 9.61305e-16, No Iterations 206
[4] Bidomain phiE solve debug: proc=4 completed solve, outerIter=2
[3] Bidomain phiE solve debug: proc=3 completed solve, outerIter=2
[5] Bidomain phiE solve debug: proc=5 completed solve, outerIter=2
[1] Bidomain phiE solve debug: proc=1 completed solve, outerIter=2
[0] Bidomain phiE solve debug: proc=0 completed solve, outerIter=2
[2] Bidomain phiE solve debug: proc=2 completed solve, outerIter=2
DICPCG:  Solving for Vm, Initial residual = 5.01568e-08, Final residual = 1.43855e-17, No Iterations 4
ExecutionTime = 1.32 s  ClockTime = 1 s

Time = 0.00672646

DEBUG cell=0 t=0.00616592→0.00672646 step=0.000560538 V=0.992197 u1=1.99846 u2=0.993871 u3=0 Iion=-1.81905
DEBUG cell=0 t=0.00616592→0.00672646 step=0.00504484 V=0.992197 u1=1.99929 u2=0.993317 u3=0 Iion=-1.819
[1] Bidomain phiE reference debug: proc=1 point=(0.125 0.05 0.05) refCell=-1 ownsReference=0
[5] Bidomain phiE reference debug: proc=5 point=(0.125 0.05 0.05) refCell=-1 ownsReference=0
[2] Bidomain phiE reference debug: proc=2 point=(0.125 0.05 0.05) refCell=-1 ownsReference=0
[0] Bidomain phiE reference debug: proc=0 point=(0.125 0.05 0.05) refCell=546 ownsReference=1
Bidomain phiE reference summary: ownerCount=1 ownerProc=0 point=(0.125 0.05 0.05)
PIMPLE: iteration 1
[4] Bidomain phiE reference debug: proc=4 point=(0.125 0.05 0.05) refCell=-1 ownsReference=0
[3] Bidomain phiE reference debug: proc=3 point=(0.125 0.05 0.05) refCell=-1 ownsReference=0
[5] Bidomain phiE solve debug: proc=5 entering solve, refCell=-1 refValue=0 outerIter=1
[1] Bidomain phiE solve debug: proc=1 entering solve, refCell=-1 refValue=0 outerIter=1
[2] Bidomain phiE solve debug: proc=2 entering solve, refCell=-1 refValue=0 outerIter=1
[3] Bidomain phiE solve debug: proc=3 entering solve, refCell=-1 refValue=0 outerIter=1
[4] Bidomain phiE solve debug: proc=4 entering solve, refCell=-1 refValue=0 outerIter=1
[0] Bidomain phiE solve debug: proc=0 entering solve, refCell=546 refValue=0 outerIter=1
DICPCG:  Solving for phiE, Initial residual = 4.9903e-08, Final residual = 9.32522e-16, No Iterations 166
[5] Bidomain phiE solve debug: proc=5 completed solve, outerIter=1
[1] Bidomain phiE solve debug: proc=1 completed solve, outerIter=1
[4] Bidomain phiE solve debug: proc=4 completed solve, outerIter=1
[2] Bidomain phiE solve debug: proc=2 completed solve, outerIter=1
[3] Bidomain phiE solve debug: proc=3 completed solve, outerIter=1
[0] Bidomain phiE solve debug: proc=0 completed solve, outerIter=1
DICPCG:  Solving for Vm, Initial residual = 0.000134936, Final residual = 2.97211e-16, No Iterations 5
PIMPLE: iteration 2
[0] Bidomain phiE solve debug: proc=0 entering solve, refCell=546 refValue=0 outerIter=2
[5] Bidomain phiE solve debug: proc=5 entering solve, refCell=-1 refValue=0 outerIter=2
[3] Bidomain phiE solve debug: proc=3 entering solve, refCell=-1 refValue=0 outerIter=2
[2] Bidomain phiE solve debug: proc=2 entering solve, refCell=-1 refValue=0 outerIter=2
[4] Bidomain phiE solve debug: proc=4 entering solve, refCell=-1 refValue=0 outerIter=2
[1] Bidomain phiE solve debug: proc=1 entering solve, refCell=-1 refValue=0 outerIter=2
DICPCG:  Solving for phiE, Initial residual = 0.000134253, Final residual = 9.60742e-16, No Iterations 206
[1] Bidomain phiE solve debug: proc=1 completed solve, outerIter=2
[2] Bidomain phiE solve debug: proc=2 completed solve, outerIter=2
[5] Bidomain phiE solve debug: proc=5 completed solve, outerIter=2
[0] Bidomain phiE solve debug: proc=0 completed solve, outerIter=2
[4] Bidomain phiE solve debug: proc=4 completed solve, outerIter=2
[3] Bidomain phiE solve debug: proc=3 completed solve, outerIter=2
DICPCG:  Solving for Vm, Initial residual = 5.0128e-08, Final residual = 1.43773e-17, No Iterations 4
ExecutionTime = 1.46 s  ClockTime = 1 s

Time = 0.00728699

DEBUG cell=0 t=0.00672646→0.00728699 step=0.000560538 V=0.992465 u1=1.99929 u2=0.993317 u3=0 Iion=-1.819
DEBUG cell=0 t=0.00672646→0.00728699 step=0.00504484 V=0.992465 u1=2.00013 u2=0.992764 u3=0 Iion=-1.81895
[5] Bidomain phiE reference debug: proc=5 point=(0.125 0.05 0.05) refCell=-1 ownsReference=0
[2] Bidomain phiE reference debug: proc=2 point=(0.125 0.05 0.05) refCell=-1 ownsReference=0
[4] Bidomain phiE reference debug: proc=4 point=(0.125 0.05 0.05) refCell=-1 ownsReference=0
[3] Bidomain phiE reference debug: proc=3 point=(0.125 0.05 0.05) refCell=-1 ownsReference=0
[0] Bidomain phiE reference debug: proc=0 point=(0.125 0.05 0.05) refCell=546 ownsReference=1
Bidomain phiE reference summary: ownerCount=1 ownerProc=0 point=(0.125 0.05 0.05)
PIMPLE: iteration 1
[1] Bidomain phiE reference debug: proc=1 point=(0.125 0.05 0.05) refCell=-1 ownsReference=0
[4] Bidomain phiE solve debug: proc=4 entering solve, refCell=-1 refValue=0 outerIter=1
[0] Bidomain phiE solve debug: proc=0 entering solve, refCell=546 refValue=0 outerIter=1
[1] Bidomain phiE solve debug: proc=1 entering solve, refCell=-1 refValue=0 outerIter=1
[3] Bidomain phiE solve debug: proc=3 entering solve, refCell=-1 refValue=0 outerIter=1
[5] Bidomain phiE solve debug: proc=5 entering solve, refCell=-1 refValue=0 outerIter=1
[2] Bidomain phiE solve debug: proc=2 entering solve, refCell=-1 refValue=0 outerIter=1
DICPCG:  Solving for phiE, Initial residual = 4.98743e-08, Final residual = 9.5165e-16, No Iterations 166
[5] Bidomain phiE solve debug: proc=5 completed solve, outerIter=1
[4] Bidomain phiE solve debug: proc=4 completed solve, outerIter=1
[2] Bidomain phiE solve debug: proc=2 completed solve, outerIter=1
[3] Bidomain phiE solve debug: proc=3 completed solve, outerIter=1
[1] Bidomain phiE solve debug: proc=1 completed solve, outerIter=1
[0] Bidomain phiE solve debug: proc=0 completed solve, outerIter=1
DICPCG:  Solving for Vm, Initial residual = 0.000134859, Final residual = 2.9704e-16, No Iterations 5
PIMPLE: iteration 2
[5] Bidomain phiE solve debug: proc=5 entering solve, refCell=-1 refValue=0 outerIter=2
[1] Bidomain phiE solve debug: proc=1 entering solve, refCell=-1 refValue=0 outerIter=2
[3] Bidomain phiE solve debug: proc=3 entering solve, refCell=-1 refValue=0 outerIter=2
[4] Bidomain phiE solve debug: proc=4 entering solve, refCell=-1 refValue=0 outerIter=2
[2] Bidomain phiE solve debug: proc=2 entering solve, refCell=-1 refValue=0 outerIter=2
[0] Bidomain phiE solve debug: proc=0 entering solve, refCell=546 refValue=0 outerIter=2
DICPCG:  Solving for phiE, Initial residual = 0.000134176, Final residual = 9.60104e-16, No Iterations 206
[5] Bidomain phiE solve debug: proc=5 completed solve, outerIter=2
[3] Bidomain phiE solve debug: proc=3 completed solve, outerIter=2
[4] Bidomain phiE solve debug: proc=4 completed solve, outerIter=2
[1] Bidomain phiE solve debug: proc=1 completed solve, outerIter=2
[2] Bidomain phiE solve debug: proc=2 completed solve, outerIter=2
[0] Bidomain phiE solve debug: proc=0 completed solve, outerIter=2
DICPCG:  Solving for Vm, Initial residual = 5.00993e-08, Final residual = 1.4369e-17, No Iterations 4
ExecutionTime = 1.65 s  ClockTime = 1 s

Time = 0.00784753

DEBUG cell=0 t=0.00728699→0.00784753 step=0.000560538 V=0.992733 u1=2.00013 u2=0.992764 u3=0 Iion=-1.81895
DEBUG cell=0 t=0.00728699→0.00784753 step=0.00504484 V=0.992733 u1=2.00097 u2=0.992212 u3=0 Iion=-1.8189
[5] Bidomain phiE reference debug: proc=5 point=(0.125 0.05 0.05) refCell=-1 ownsReference=0
[2] Bidomain phiE reference debug: proc=2 point=(0.125 0.05 0.05) refCell=-1 ownsReference=0
[4] Bidomain phiE reference debug: proc=4 point=(0.125 0.05 0.05) refCell=-1 ownsReference=0
[3] Bidomain phiE reference debug: proc=3 point=(0.125 0.05 0.05) refCell=-1 ownsReference=0
[0] Bidomain phiE reference debug: proc=0 point=(0.125 0.05 0.05) refCell=546 ownsReference=1
Bidomain phiE reference summary: ownerCount=1 ownerProc=0 point=(0.125 0.05 0.05)
[1] Bidomain phiE reference debug: proc=1 point=(0.125 0.05 0.05) refCell=-1 ownsReference=0
PIMPLE: iteration 1
[5] Bidomain phiE solve debug: proc=5 entering solve, refCell=-1 refValue=0 outerIter=1
[3] Bidomain phiE solve debug: proc=3 entering solve, refCell=-1 refValue=0 outerIter=1
[2] Bidomain phiE solve debug: proc=2 entering solve, refCell=-1 refValue=0 outerIter=1
[4] Bidomain phiE solve debug: proc=4 entering solve, refCell=-1 refValue=0 outerIter=1
[1] Bidomain phiE solve debug: proc=1 entering solve, refCell=-1 refValue=0 outerIter=1
[0] Bidomain phiE solve debug: proc=0 entering solve, refCell=546 refValue=0 outerIter=1
DICPCG:  Solving for phiE, Initial residual = 4.98457e-08, Final residual = 9.40646e-16, No Iterations 166
[2] Bidomain phiE solve debug: proc=2 completed solve, outerIter=1
[5] Bidomain phiE solve debug: proc=5 completed solve, outerIter=1
[3] Bidomain phiE solve debug: proc=3 completed solve, outerIter=1
[0] Bidomain phiE solve debug: proc=0 completed solve, outerIter=1
[1] Bidomain phiE solve debug: proc=1 completed solve, outerIter=1
[4] Bidomain phiE solve debug: proc=4 completed solve, outerIter=1
DICPCG:  Solving for Vm, Initial residual = 0.000134781, Final residual = 2.96869e-16, No Iterations 5
PIMPLE: iteration 2
[4] Bidomain phiE solve debug: proc=4 entering solve, refCell=-1 refValue=0 outerIter=2
[5] Bidomain phiE solve debug: proc=5 entering solve, refCell=-1 refValue=0 outerIter=2
[2] Bidomain phiE solve debug: proc=2 entering solve, refCell=-1 refValue=0 outerIter=2
[0] Bidomain phiE solve debug: proc=0 entering solve, refCell=546 refValue=0 outerIter=2
[1] Bidomain phiE solve debug: proc=1 entering solve, refCell=-1 refValue=0 outerIter=2
[3] Bidomain phiE solve debug: proc=3 entering solve, refCell=-1 refValue=0 outerIter=2
DICPCG:  Solving for phiE, Initial residual = 0.000134099, Final residual = 9.59504e-16, No Iterations 206
[2] Bidomain phiE solve debug: proc=2 completed solve, outerIter=2
[5] Bidomain phiE solve debug: proc=5 completed solve, outerIter=2
[0] Bidomain phiE solve debug: proc=0 completed solve, outerIter=2
[3] Bidomain phiE solve debug: proc=3 completed solve, outerIter=2
[4] Bidomain phiE solve debug: proc=4 completed solve, outerIter=2
[1] Bidomain phiE solve debug: proc=1 completed solve, outerIter=2
DICPCG:  Solving for Vm, Initial residual = 5.00705e-08, Final residual = 1.43608e-17, No Iterations 4
ExecutionTime = 1.82 s  ClockTime = 2 s

Time = 0.00840807

DEBUG cell=0 t=0.00784753→0.00840807 step=0.000560538 V=0.993001 u1=2.00097 u2=0.992212 u3=0 Iion=-1.8189
DEBUG cell=0 t=0.00784753→0.00840807 step=0.00504484 V=0.993001 u1=2.00181 u2=0.99166 u3=0 Iion=-1.81886
[1] Bidomain phiE reference debug: proc=1 point=(0.125 0.05 0.05) refCell=-1 ownsReference=0
[0] Bidomain phiE reference debug: proc=0 point=(0.125 0.05 0.05) refCell=546 ownsReference=1
[5] Bidomain phiE reference debug: proc=5 point=(0.125 0.05 0.05) refCell=-1 ownsReference=0
[2] Bidomain phiE reference debug: proc=2 point=(0.125 0.05 0.05) refCell=-1 ownsReference=0
[3] Bidomain phiE reference debug: proc=3 point=(0.125 0.05 0.05) refCell=-1 ownsReference=0
Bidomain phiE reference summary: ownerCount=1 ownerProc=0 point=(0.125 0.05 0.05)
[4] Bidomain phiE reference debug: proc=4 point=(0.125 0.05 0.05) refCell=-1 ownsReference=0
PIMPLE: iteration 1
[3] Bidomain phiE solve debug: proc=3 entering solve, refCell=-1 refValue=0 outerIter=1
[2] Bidomain phiE solve debug: proc=2 entering solve, refCell=-1 refValue=0 outerIter=1
[1] Bidomain phiE solve debug: proc=1 entering solve, refCell=-1 refValue=0 outerIter=1
[0] Bidomain phiE solve debug: proc=0 entering solve, refCell=546 refValue=0 outerIter=1
[5] Bidomain phiE solve debug: proc=5 entering solve, refCell=-1 refValue=0 outerIter=1
[4] Bidomain phiE solve debug: proc=4 entering solve, refCell=-1 refValue=0 outerIter=1
DICPCG:  Solving for phiE, Initial residual = 4.98171e-08, Final residual = 9.48065e-16, No Iterations 166
[1] Bidomain phiE solve debug: proc=1 completed solve, outerIter=1
[5] Bidomain phiE solve debug: proc=5 completed solve, outerIter=1
[4] Bidomain phiE solve debug: proc=4 completed solve, outerIter=1
[0] Bidomain phiE solve debug: proc=0 completed solve, outerIter=1
[3] Bidomain phiE solve debug: proc=3 completed solve, outerIter=1
[2] Bidomain phiE solve debug: proc=2 completed solve, outerIter=1
DICPCG:  Solving for Vm, Initial residual = 0.000134704, Final residual = 2.96699e-16, No Iterations 5
PIMPLE: iteration 2
[0] Bidomain phiE solve debug: proc=0 entering solve, refCell=546 refValue=0 outerIter=2
[1] Bidomain phiE solve debug: proc=1 entering solve, refCell=-1 refValue=0 outerIter=2
[3] Bidomain phiE solve debug: proc=3 entering solve, refCell=-1 refValue=0 outerIter=2
[4] Bidomain phiE solve debug: proc=4 entering solve, refCell=-1 refValue=0 outerIter=2
[5] Bidomain phiE solve debug: proc=5 entering solve, refCell=-1 refValue=0 outerIter=2
[2] Bidomain phiE solve debug: proc=2 entering solve, refCell=-1 refValue=0 outerIter=2
DICPCG:  Solving for phiE, Initial residual = 0.000134022, Final residual = 9.58935e-16, No Iterations 206
[1] Bidomain phiE solve debug: proc=1 completed solve, outerIter=2
[0] Bidomain phiE solve debug: proc=0 completed solve, outerIter=2
[4] Bidomain phiE solve debug: proc=4 completed solve, outerIter=2
[5] Bidomain phiE solve debug: proc=5 completed solve, outerIter=2
[3] Bidomain phiE solve debug: proc=3 completed solve, outerIter=2
[2] Bidomain phiE solve debug: proc=2 completed solve, outerIter=2
DICPCG:  Solving for Vm, Initial residual = 5.00418e-08, Final residual = 1.43525e-17, No Iterations 4
ExecutionTime = 1.99 s  ClockTime = 2 s

Time = 0.00896861

DEBUG cell=0 t=0.00840807→0.00896861 step=0.000560538 V=0.993269 u1=2.00181 u2=0.99166 u3=0 Iion=-1.81886
DEBUG cell=0 t=0.00840807→0.00896861 step=0.00504484 V=0.993269 u1=2.00264 u2=0.991109 u3=0 Iion=-1.81881
[1] Bidomain phiE reference debug: proc=1 point=(0.125 0.05 0.05) refCell=-1 ownsReference=0
[5] Bidomain phiE reference debug: proc=5 point=(0.125 0.05 0.05) refCell=-1 ownsReference=0
[0] Bidomain phiE reference debug: proc=0 point=(0.125 0.05 0.05) refCell=546 ownsReference=1
[2] Bidomain phiE reference debug: proc=2 point=(0.125 0.05 0.05) refCell=-1 ownsReference=0
[4] Bidomain phiE reference debug: proc=4 point=(0.125 0.05 0.05) refCell=-1 ownsReference=0
[3] Bidomain phiE reference debug: proc=3 point=(0.125 0.05 0.05) refCell=-1 ownsReference=0
Bidomain phiE reference summary: ownerCount=1 ownerProc=0 point=(0.125 0.05 0.05)
PIMPLE: iteration 1
[0] Bidomain phiE solve debug: proc=0 entering solve, refCell=546 refValue=0 outerIter=1
[1] Bidomain phiE solve debug: proc=1 entering solve, refCell=-1 refValue=0 outerIter=1
[3] Bidomain phiE solve debug: proc=3 entering solve, refCell=-1 refValue=0 outerIter=1
[2] Bidomain phiE solve debug: proc=2 entering solve, refCell=-1 refValue=0 outerIter=1
[4] Bidomain phiE solve debug: proc=4 entering solve, refCell=-1 refValue=0 outerIter=1
[5] Bidomain phiE solve debug: proc=5 entering solve, refCell=-1 refValue=0 outerIter=1
DICPCG:  Solving for phiE, Initial residual = 4.97886e-08, Final residual = 9.41059e-16, No Iterations 166
[1] Bidomain phiE solve debug: proc=1 completed solve, outerIter=1
[5] Bidomain phiE solve debug: proc=5 completed solve, outerIter=1
[2] Bidomain phiE solve debug: proc=2 completed solve, outerIter=1
[0] Bidomain phiE solve debug: proc=0 completed solve, outerIter=1
[3] Bidomain phiE solve debug: proc=3 completed solve, outerIter=1
[4] Bidomain phiE solve debug: proc=4 completed solve, outerIter=1
DICPCG:  Solving for Vm, Initial residual = 0.000134627, Final residual = 2.96529e-16, No Iterations 5
PIMPLE: iteration 2
[0] Bidomain phiE solve debug: proc=0 entering solve, refCell=546 refValue=0 outerIter=2
[4] Bidomain phiE solve debug: proc=4 entering solve, refCell=-1 refValue=0 outerIter=2
[3] Bidomain phiE solve debug: proc=3 entering solve, refCell=-1 refValue=0 outerIter=2
[2] Bidomain phiE solve debug: proc=2 entering solve, refCell=-1 refValue=0 outerIter=2
[5] Bidomain phiE solve debug: proc=5 entering solve, refCell=-1 refValue=0 outerIter=2
[1] Bidomain phiE solve debug: proc=1 entering solve, refCell=-1 refValue=0 outerIter=2
DICPCG:  Solving for phiE, Initial residual = 0.000133946, Final residual = 9.58306e-16, No Iterations 206
[5] Bidomain phiE solve debug: proc=5 completed solve, outerIter=2
[4] Bidomain phiE solve debug: proc=4 completed solve, outerIter=2
[1] Bidomain phiE solve debug: proc=1 completed solve, outerIter=2
[3] Bidomain phiE solve debug: proc=3 completed solve, outerIter=2
[2] Bidomain phiE solve debug: proc=2 completed solve, outerIter=2
[0] Bidomain phiE solve debug: proc=0 completed solve, outerIter=2
DICPCG:  Solving for Vm, Initial residual = 5.00132e-08, Final residual = 1.43443e-17, No Iterations 4
ExecutionTime = 2.18 s  ClockTime = 2 s

Time = 0.00952915

DEBUG cell=0 t=0.00896861→0.00952915 step=0.000560538 V=0.993536 u1=2.00264 u2=0.991109 u3=0 Iion=-1.81881
DEBUG cell=0 t=0.00896861→0.00952915 step=0.00504484 V=0.993536 u1=2.00348 u2=0.990559 u3=0 Iion=-1.81876
[0] Bidomain phiE reference debug: proc=0 point=(0.125 0.05 0.05) refCell=546 ownsReference=1
Bidomain phiE reference summary: ownerCount=1 ownerProc=0 point=(0.125 0.05 0.05)
[5] Bidomain phiE reference debug: proc=5 point=(0.125 0.05 0.05) refCell=-1 ownsReference=0
[1] Bidomain phiE reference debug: proc=1 point=(0.125 0.05 0.05) refCell=-1 ownsReference=0
[4] Bidomain phiE reference debug: proc=4 point=(0.125 0.05 0.05) refCell=-1 ownsReference=0
[2] Bidomain phiE reference debug: proc=2 point=(0.125 0.05 0.05) refCell=-1 ownsReference=0
[3] Bidomain phiE reference debug: proc=3 point=(0.125 0.05 0.05) refCell=-1 ownsReference=0
PIMPLE: iteration 1
[1] Bidomain phiE solve debug: proc=1 entering solve, refCell=-1 refValue=0 outerIter=1
[4] Bidomain phiE solve debug: proc=4 entering solve, refCell=-1 refValue=0 outerIter=1
[5] Bidomain phiE solve debug: proc=5 entering solve, refCell=-1 refValue=0 outerIter=1
[3] Bidomain phiE solve debug: proc=3 entering solve, refCell=-1 refValue=0 outerIter=1
[2] Bidomain phiE solve debug: proc=2 entering solve, refCell=-1 refValue=0 outerIter=1
[0] Bidomain phiE solve debug: proc=0 entering solve, refCell=546 refValue=0 outerIter=1
DICPCG:  Solving for phiE, Initial residual = 4.97601e-08, Final residual = 9.3465e-16, No Iterations 166
[0] Bidomain phiE solve debug: proc=0 completed solve, outerIter=1
[2] Bidomain phiE solve debug: proc=2 completed solve, outerIter=1
[3] Bidomain phiE solve debug: proc=3 completed solve, outerIter=1
[5] Bidomain phiE solve debug: proc=5 completed solve, outerIter=1
[1] Bidomain phiE solve debug: proc=1 completed solve, outerIter=1
[4] Bidomain phiE solve debug: proc=4 completed solve, outerIter=1
DICPCG:  Solving for Vm, Initial residual = 0.00013455, Final residual = 2.96359e-16, No Iterations 5
PIMPLE: iteration 2
[0] Bidomain phiE solve debug: proc=0 entering solve, refCell=546 refValue=0 outerIter=2
[4] Bidomain phiE solve debug: proc=4 entering solve, refCell=-1 refValue=0 outerIter=2
[1] Bidomain phiE solve debug: proc=1 entering solve, refCell=-1 refValue=0 outerIter=2
[5] Bidomain phiE solve debug: proc=5 entering solve, refCell=-1 refValue=0 outerIter=2
[2] Bidomain phiE solve debug: proc=2 entering solve, refCell=-1 refValue=0 outerIter=2
[3] Bidomain phiE solve debug: proc=3 entering solve, refCell=-1 refValue=0 outerIter=2
DICPCG:  Solving for phiE, Initial residual = 0.000133869, Final residual = 9.57781e-16, No Iterations 206
[4] Bidomain phiE solve debug: proc=4 completed solve, outerIter=2
[3] Bidomain phiE solve debug: proc=3 completed solve, outerIter=2
[5] Bidomain phiE solve debug: proc=5 completed solve, outerIter=2
[0] Bidomain phiE solve debug: proc=0 completed solve, outerIter=2
[1] Bidomain phiE solve debug: proc=1 completed solve, outerIter=2
[2] Bidomain phiE solve debug: proc=2 completed solve, outerIter=2
DICPCG:  Solving for Vm, Initial residual = 4.99846e-08, Final residual = 1.43361e-17, No Iterations 4
ExecutionTime = 2.36 s  ClockTime = 2 s

Time = 0.0100897

DEBUG cell=0 t=0.00952915→0.0100897 step=0.000560538 V=0.993804 u1=2.00348 u2=0.990559 u3=0 Iion=-1.81876
DEBUG cell=0 t=0.00952915→0.0100897 step=0.00504484 V=0.993804 u1=2.00432 u2=0.990009 u3=0 Iion=-1.81871
[1] Bidomain phiE reference debug: proc=1 point=(0.125 0.05 0.05) refCell=-1 ownsReference=0
[5] Bidomain phiE reference debug: proc=5 point=(0.125 0.05 0.05) refCell=-1 ownsReference=0
[0] Bidomain phiE reference debug: proc=0 point=(0.125 0.05 0.05) refCell=546 ownsReference=1
Bidomain phiE reference summary: ownerCount=1 ownerProc=0 point=(0.125 0.05 0.05)
[2] Bidomain phiE reference debug: proc=2 point=(0.125 0.05 0.05) refCell=-1 ownsReference=0
[4] Bidomain phiE reference debug: proc=4 point=(0.125 0.05 0.05) refCell=-1 ownsReference=0
[3] Bidomain phiE reference debug: proc=3 point=(0.125 0.05 0.05) refCell=-1 ownsReference=0
PIMPLE: iteration 1
[4] Bidomain phiE solve debug: proc=4 entering solve, refCell=-1 refValue=0 outerIter=1
[2] Bidomain phiE solve debug: proc=2 entering solve, refCell=-1 refValue=0 outerIter=1
[1] Bidomain phiE solve debug: proc=1 entering solve, refCell=-1 refValue=0 outerIter=1
[0] Bidomain phiE solve debug: proc=0 entering solve, refCell=546 refValue=0 outerIter=1
[3] Bidomain phiE solve debug: proc=3 entering solve, refCell=-1 refValue=0 outerIter=1
[5] Bidomain phiE solve debug: proc=5 entering solve, refCell=-1 refValue=0 outerIter=1
DICPCG:  Solving for phiE, Initial residual = 4.97316e-08, Final residual = 9.4887e-16, No Iterations 166
[5] Bidomain phiE solve debug: proc=5 completed solve, outerIter=1
[3] Bidomain phiE solve debug: proc=3 completed solve, outerIter=1
[4] Bidomain phiE solve debug: proc=4 completed solve, outerIter=1
[2] Bidomain phiE solve debug: proc=2 completed solve, outerIter=1
[1] Bidomain phiE solve debug: proc=1 completed solve, outerIter=1
[0] Bidomain phiE solve debug: proc=0 completed solve, outerIter=1
DICPCG:  Solving for Vm, Initial residual = 0.000134473, Final residual = 2.96189e-16, No Iterations 5
PIMPLE: iteration 2
[5] Bidomain phiE solve debug: proc=5 entering solve, refCell=-1 refValue=0 outerIter=2
[2] Bidomain phiE solve debug: proc=2 entering solve, refCell=-1 refValue=0 outerIter=2
[1] Bidomain phiE solve debug: proc=1 entering solve, refCell=-1 refValue=0 outerIter=2
[4] Bidomain phiE solve debug: proc=4 entering solve, refCell=-1 refValue=0 outerIter=2
[3] Bidomain phiE solve debug: proc=3 entering solve, refCell=-1 refValue=0 outerIter=2
[0] Bidomain phiE solve debug: proc=0 entering solve, refCell=546 refValue=0 outerIter=2
DICPCG:  Solving for phiE, Initial residual = 0.000133792, Final residual = 9.56673e-16, No Iterations 206
[5] Bidomain phiE solve debug: proc=5 completed solve, outerIter=2
[0] Bidomain phiE solve debug: proc=0 completed solve, outerIter=2
[2] Bidomain phiE solve debug: proc=2 completed solve, outerIter=2
[1] Bidomain phiE solve debug: proc=1 completed solve, outerIter=2
[4] Bidomain phiE solve debug: proc=4 completed solve, outerIter=2
[3] Bidomain phiE solve debug: proc=3 completed solve, outerIter=2
DICPCG:  Solving for Vm, Initial residual = 4.9956e-08, Final residual = 1.43279e-17, No Iterations 4
ExecutionTime = 2.53 s  ClockTime = 2 s

Time = 0.0106502

DEBUG cell=0 t=0.0100897→0.0106502 step=0.000560538 V=0.994071 u1=2.00432 u2=0.990009 u3=0 Iion=-1.81871
DEBUG cell=0 t=0.0100897→0.0106502 step=0.00504484 V=0.994071 u1=2.00515 u2=0.98946 u3=0 Iion=-1.81866
[5] Bidomain phiE reference debug: proc=5 point=(0.125 0.05 0.05) refCell=-1 ownsReference=0
[0] Bidomain phiE reference debug: proc=0 point=(0.125 0.05 0.05) refCell=546 ownsReference=1
Bidomain phiE reference summary: ownerCount=1 ownerProc=0 point=(0.125 0.05 0.05)
[2] Bidomain phiE reference debug: proc=2 point=(0.125 0.05 0.05) refCell=-1 ownsReference=0
[4] Bidomain phiE reference debug: proc=4 point=(0.125 0.05 0.05) refCell=-1 ownsReference=0
[1] Bidomain phiE reference debug: proc=1 point=(0.125 0.05 0.05) refCell=-1 ownsReference=0
[3] Bidomain phiE reference debug: proc=3 point=(0.125 0.05 0.05) refCell=-1 ownsReference=0
PIMPLE: iteration 1
[4] Bidomain phiE solve debug: proc=4 entering solve, refCell=-1 refValue=0 outerIter=1
[5] Bidomain phiE solve debug: proc=5 entering solve, refCell=-1 refValue=0 outerIter=1
[1] Bidomain phiE solve debug: proc=1 entering solve, refCell=-1 refValue=0 outerIter=1
[2] Bidomain phiE solve debug: proc=2 entering solve, refCell=-1 refValue=0 outerIter=1
[0] Bidomain phiE solve debug: proc=0 entering solve, refCell=546 refValue=0 outerIter=1
[3] Bidomain phiE solve debug: proc=3 entering solve, refCell=-1 refValue=0 outerIter=1
DICPCG:  Solving for phiE, Initial residual = 4.97032e-08, Final residual = 9.43173e-16, No Iterations 166
[0] Bidomain phiE solve debug: proc=0 completed solve, outerIter=1
[1] Bidomain phiE solve debug: proc=1 completed solve, outerIter=1
[3] Bidomain phiE solve debug: proc=3 completed solve, outerIter=1
[5] Bidomain phiE solve debug: proc=5 completed solve, outerIter=1
[4] Bidomain phiE solve debug: proc=4 completed solve, outerIter=1
[2] Bidomain phiE solve debug: proc=2 completed solve, outerIter=1
DICPCG:  Solving for Vm, Initial residual = 0.000134396, Final residual = 2.96019e-16, No Iterations 5
PIMPLE: iteration 2
[5] Bidomain phiE solve debug: proc=5 entering solve, refCell=-1 refValue=0 outerIter=2
[0] Bidomain phiE solve debug: proc=0 entering solve, refCell=546 refValue=0 outerIter=2
[1] Bidomain phiE solve debug: proc=1 entering solve, refCell=-1 refValue=0 outerIter=2
[4] Bidomain phiE solve debug: proc=4 entering solve, refCell=-1 refValue=0 outerIter=2
[3] Bidomain phiE solve debug: proc=3 entering solve, refCell=-1 refValue=0 outerIter=2
[2] Bidomain phiE solve debug: proc=2 entering solve, refCell=-1 refValue=0 outerIter=2
DICPCG:  Solving for phiE, Initial residual = 0.000133716, Final residual = 9.56604e-16, No Iterations 206
[5] Bidomain phiE solve debug: proc=5 completed solve, outerIter=2
[3] Bidomain phiE solve debug: proc=3 completed solve, outerIter=2
[4] Bidomain phiE solve debug: proc=4 completed solve, outerIter=2
[0] Bidomain phiE solve debug: proc=0 completed solve, outerIter=2
[2] Bidomain phiE solve debug: proc=2 completed solve, outerIter=2
[1] Bidomain phiE solve debug: proc=1 completed solve, outerIter=2
DICPCG:  Solving for Vm, Initial residual = 4.99274e-08, Final residual = 1.43197e-17, No Iterations 4
ExecutionTime = 2.72 s  ClockTime = 3 s

Time = 0.0112108

DEBUG cell=0 t=0.0106502→0.0112108 step=0.000560538 V=0.994339 u1=2.00515 u2=0.98946 u3=0 Iion=-1.81866
DEBUG cell=0 t=0.0106502→0.0112108 step=0.00504484 V=0.994339 u1=2.00599 u2=0.988911 u3=0 Iion=-1.81861
[0] Bidomain phiE reference debug: proc=0 point=(0.125 0.05 0.05) refCell=546 ownsReference=1
Bidomain phiE reference summary: ownerCount=1 ownerProc=0 point=(0.125 0.05 0.05)
[5] Bidomain phiE reference debug: proc=5 point=(0.125 0.05 0.05) refCell=-1 ownsReference=0
[2] Bidomain phiE reference debug: proc=2 point=(0.125 0.05 0.05) refCell=-1 ownsReference=0
[4] Bidomain phiE reference debug: proc=4 point=(0.125 0.05 0.05) refCell=-1 ownsReference=0
[1] Bidomain phiE reference debug: proc=1 point=(0.125 0.05 0.05) refCell=-1 ownsReference=0
[3] Bidomain phiE reference debug: proc=3 point=(0.125 0.05 0.05) refCell=-1 ownsReference=0
PIMPLE: iteration 1
[2] Bidomain phiE solve debug: proc=2 entering solve, refCell=-1 refValue=0 outerIter=1
[3] Bidomain phiE solve debug: proc=3 entering solve, refCell=-1 refValue=0 outerIter=1
[1] Bidomain phiE solve debug: proc=1 entering solve, refCell=-1 refValue=0 outerIter=1
[5] Bidomain phiE solve debug: proc=5 entering solve, refCell=-1 refValue=0 outerIter=1
[4] Bidomain phiE solve debug: proc=4 entering solve, refCell=-1 refValue=0 outerIter=1
[0] Bidomain phiE solve debug: proc=0 entering solve, refCell=546 refValue=0 outerIter=1
DICPCG:  Solving for phiE, Initial residual = 4.96747e-08, Final residual = 9.37032e-16, No Iterations 166
[1] Bidomain phiE solve debug: proc=1 completed solve, outerIter=1
[2] Bidomain phiE solve debug: proc=2 completed solve, outerIter=1
[5] Bidomain phiE solve debug: proc=5 completed solve, outerIter=1
[3] Bidomain phiE solve debug: proc=3 completed solve, outerIter=1
[0] Bidomain phiE solve debug: proc=0 completed solve, outerIter=1
[4] Bidomain phiE solve debug: proc=4 completed solve, outerIter=1
DICPCG:  Solving for Vm, Initial residual = 0.000134319, Final residual = 2.9585e-16, No Iterations 5
PIMPLE: iteration 2
[5] Bidomain phiE solve debug: proc=5 entering solve, refCell=-1 refValue=0 outerIter=2
[2] Bidomain phiE solve debug: proc=2 entering solve, refCell=-1 refValue=0 outerIter=2
[1] Bidomain phiE solve debug: proc=1 entering solve, refCell=-1 refValue=0 outerIter=2
[0] Bidomain phiE solve debug: proc=0 entering solve, refCell=546 refValue=0 outerIter=2
[3] Bidomain phiE solve debug: proc=3 entering solve, refCell=-1 refValue=0 outerIter=2
[4] Bidomain phiE solve debug: proc=4 entering solve, refCell=-1 refValue=0 outerIter=2
DICPCG:  Solving for phiE, Initial residual = 0.00013364, Final residual = 9.55969e-16, No Iterations 206
[4] Bidomain phiE solve debug: proc=4 completed solve, outerIter=2
[5] Bidomain phiE solve debug: proc=5 completed solve, outerIter=2
[0] Bidomain phiE solve debug: proc=0 completed solve, outerIter=2
[2] Bidomain phiE solve debug: proc=2 completed solve, outerIter=2
[1] Bidomain phiE solve debug: proc=1 completed solve, outerIter=2
[3] Bidomain phiE solve debug: proc=3 completed solve, outerIter=2
DICPCG:  Solving for Vm, Initial residual = 4.98989e-08, Final residual = 1.43115e-17, No Iterations 4
ExecutionTime = 3.02 s  ClockTime = 3 s

Time = 0.0117713

DEBUG cell=0 t=0.0112108→0.0117713 step=0.000560538 V=0.994606 u1=2.00599 u2=0.988911 u3=0 Iion=-1.81861
DEBUG cell=0 t=0.0112108→0.0117713 step=0.00504484 V=0.994606 u1=2.00683 u2=0.988363 u3=0 Iion=-1.81856
[1] Bidomain phiE reference debug: proc=1 point=(0.125 0.05 0.05) refCell=-1 ownsReference=0
[5] Bidomain phiE reference debug: proc=5 point=(0.125 0.05 0.05) refCell=-1 ownsReference=0
[0] Bidomain phiE reference debug: proc=0 point=(0.125 0.05 0.05) refCell=546 ownsReference=1
Bidomain phiE reference summary: ownerCount=1 ownerProc=0 point=(0.125 0.05 0.05)
PIMPLE: iteration 1
[4] Bidomain phiE reference debug: proc=4 point=(0.125 0.05 0.05) refCell=-1 ownsReference=0
[2] Bidomain phiE reference debug: proc=2 point=(0.125 0.05 0.05) refCell=-1 ownsReference=0
[3] Bidomain phiE reference debug: proc=3 point=(0.125 0.05 0.05) refCell=-1 ownsReference=0
[5] Bidomain phiE solve debug: proc=5 entering solve, refCell=-1 refValue=0 outerIter=1
[1] Bidomain phiE solve debug: proc=1 entering solve, refCell=-1 refValue=0 outerIter=1
[2] Bidomain phiE solve debug: proc=2 entering solve, refCell=-1 refValue=0 outerIter=1
[4] Bidomain phiE solve debug: proc=4 entering solve, refCell=-1 refValue=0 outerIter=1
[3] Bidomain phiE solve debug: proc=3 entering solve, refCell=-1 refValue=0 outerIter=1
[0] Bidomain phiE solve debug: proc=0 entering solve, refCell=546 refValue=0 outerIter=1
DICPCG:  Solving for phiE, Initial residual = 4.96463e-08, Final residual = 9.4679e-16, No Iterations 166
[0] Bidomain phiE solve debug: proc=0 completed solve, outerIter=1
[4] Bidomain phiE solve debug: proc=4 completed solve, outerIter=1
[1] Bidomain phiE solve debug: proc=1 completed solve, outerIter=1
[3] Bidomain phiE solve debug: proc=3 completed solve, outerIter=1
[5] Bidomain phiE solve debug: proc=5 completed solve, outerIter=1
[2] Bidomain phiE solve debug: proc=2 completed solve, outerIter=1
DICPCG:  Solving for Vm, Initial residual = 0.000134242, Final residual = 2.95681e-16, No Iterations 5
PIMPLE: iteration 2
[4] Bidomain phiE solve debug: proc=4 entering solve, refCell=-1 refValue=0 outerIter=2
[2] Bidomain phiE solve debug: proc=2 entering solve, refCell=-1 refValue=0 outerIter=2
[0] Bidomain phiE solve debug: proc=0 entering solve, refCell=546 refValue=0 outerIter=2
[5] Bidomain phiE solve debug: proc=5 entering solve, refCell=-1 refValue=0 outerIter=2
[3] Bidomain phiE solve debug: proc=3 entering solve, refCell=-1 refValue=0 outerIter=2
[1] Bidomain phiE solve debug: proc=1 entering solve, refCell=-1 refValue=0 outerIter=2
DICPCG:  Solving for phiE, Initial residual = 0.000133563, Final residual = 9.55476e-16, No Iterations 206
[4] Bidomain phiE solve debug: proc=4 completed solve, outerIter=2
[0] Bidomain phiE solve debug: proc=0 completed solve, outerIter=2
[5] Bidomain phiE solve debug: proc=5 completed solve, outerIter=2
[2] Bidomain phiE solve debug: proc=2 completed solve, outerIter=2
[3] Bidomain phiE solve debug: proc=3 completed solve, outerIter=2
[1] Bidomain phiE solve debug: proc=1 completed solve, outerIter=2
DICPCG:  Solving for Vm, Initial residual = 4.98704e-08, Final residual = 1.43033e-17, No Iterations 4
ExecutionTime = 3.2 s  ClockTime = 3 s

Time = 0.0123318

DEBUG cell=0 t=0.0117713→0.0123318 step=0.000560538 V=0.994874 u1=2.00683 u2=0.988363 u3=0 Iion=-1.81856
DEBUG cell=0 t=0.0117713→0.0123318 step=0.00504484 V=0.994874 u1=2.00766 u2=0.987816 u3=0 Iion=-1.81852
[3] Bidomain phiE reference debug: proc=3 point=(0.125 0.05 0.05) refCell=-1 ownsReference=0
[0] Bidomain phiE reference debug: proc=0 point=(0.125 0.05 0.05) refCell=546 ownsReference=1
[5] Bidomain phiE reference debug: proc=5 point=(0.125 0.05 0.05) refCell=-1 ownsReference=0
[4] Bidomain phiE reference debug: proc=4 point=(0.125 0.05 0.05) refCell=-1 ownsReference=0
[2] Bidomain phiE reference debug: proc=2 point=(0.125 0.05 0.05) refCell=-1 ownsReference=0
[1] Bidomain phiE reference debug: proc=1 point=(0.125 0.05 0.05) refCell=-1 ownsReference=0
Bidomain phiE reference summary: ownerCount=1 ownerProc=0 point=(0.125 0.05 0.05)
PIMPLE: iteration 1
[1] Bidomain phiE solve debug: proc=1 entering solve, refCell=-1 refValue=0 outerIter=1
[5] Bidomain phiE solve debug: proc=5 entering solve, refCell=-1 refValue=0 outerIter=1
[4] Bidomain phiE solve debug: proc=4 entering solve, refCell=-1 refValue=0 outerIter=1
[2] Bidomain phiE solve debug: proc=2 entering solve, refCell=-1 refValue=0 outerIter=1
[0] Bidomain phiE solve debug: proc=0 entering solve, refCell=546 refValue=0 outerIter=1
[3] Bidomain phiE solve debug: proc=3 entering solve, refCell=-1 refValue=0 outerIter=1
DICPCG:  Solving for phiE, Initial residual = 4.9618e-08, Final residual = 9.39672e-16, No Iterations 166
[4] Bidomain phiE solve debug: proc=4 completed solve, outerIter=1
[5] Bidomain phiE solve debug: proc=5 completed solve, outerIter=1
[1] Bidomain phiE solve debug: proc=1 completed solve, outerIter=1
[2] Bidomain phiE solve debug: proc=2 completed solve, outerIter=1
[0] Bidomain phiE solve debug: proc=0 completed solve, outerIter=1
[3] Bidomain phiE solve debug: proc=3 completed solve, outerIter=1
DICPCG:  Solving for Vm, Initial residual = 0.000134166, Final residual = 2.95512e-16, No Iterations 5
PIMPLE: iteration 2
[0] Bidomain phiE solve debug: proc=0 entering solve, refCell=546 refValue=0 outerIter=2
[5] Bidomain phiE solve debug: proc=5 entering solve, refCell=-1 refValue=0 outerIter=2
[4] Bidomain phiE solve debug: proc=4 entering solve, refCell=-1 refValue=0 outerIter=2
[2] Bidomain phiE solve debug: proc=2 entering solve, refCell=-1 refValue=0 outerIter=2
[1] Bidomain phiE solve debug: proc=1 entering solve, refCell=-1 refValue=0 outerIter=2
[3] Bidomain phiE solve debug: proc=3 entering solve, refCell=-1 refValue=0 outerIter=2
DICPCG:  Solving for phiE, Initial residual = 0.000133487, Final residual = 9.54759e-16, No Iterations 206
[2] Bidomain phiE solve debug: proc=2 completed solve, outerIter=2
[4] Bidomain phiE solve debug: proc=4 completed solve, outerIter=2
[3] Bidomain phiE solve debug: proc=3 completed solve, outerIter=2
[1] Bidomain phiE solve debug: proc=1 completed solve, outerIter=2
[5] Bidomain phiE solve debug: proc=5 completed solve, outerIter=2
[0] Bidomain phiE solve debug: proc=0 completed solve, outerIter=2
DICPCG:  Solving for Vm, Initial residual = 4.98419e-08, Final residual = 1.42952e-17, No Iterations 4
ExecutionTime = 3.38 s  ClockTime = 3 s

Time = 0.0128924

DEBUG cell=0 t=0.0123318→0.0128924 step=0.000560538 V=0.995141 u1=2.00766 u2=0.987816 u3=0 Iion=-1.81852
DEBUG cell=0 t=0.0123318→0.0128924 step=0.00504484 V=0.995141 u1=2.0085 u2=0.987269 u3=0 Iion=-1.81847
[5] Bidomain phiE reference debug: proc=5 point=(0.125 0.05 0.05) refCell=-1 ownsReference=0
[0] Bidomain phiE reference debug: proc=0 point=(0.125 0.05 0.05) refCell=546 ownsReference=1
[2] Bidomain phiE reference debug: proc=2 point=(0.125 0.05 0.05) refCell=-1 ownsReference=0
[4] Bidomain phiE reference debug: proc=4 point=(0.125 0.05 0.05) refCell=-1 ownsReference=0
[3] Bidomain phiE reference debug: proc=3 point=(0.125 0.05 0.05) refCell=-1 ownsReference=0
[1] Bidomain phiE reference debug: proc=1 point=(0.125 0.05 0.05) refCell=-1 ownsReference=0
Bidomain phiE reference summary: ownerCount=1 ownerProc=0 point=(0.125 0.05 0.05)
PIMPLE: iteration 1
[0] Bidomain phiE solve debug: proc=0 entering solve, refCell=546 refValue=0 outerIter=1
[5] Bidomain phiE solve debug: proc=5 entering solve, refCell=-1 refValue=0 outerIter=1
[3] Bidomain phiE solve debug: proc=3 entering solve, refCell=-1 refValue=0 outerIter=1
[2] Bidomain phiE solve debug: proc=2 entering solve, refCell=-1 refValue=0 outerIter=1
[4] Bidomain phiE solve debug: proc=4 entering solve, refCell=-1 refValue=0 outerIter=1
[1] Bidomain phiE solve debug: proc=1 entering solve, refCell=-1 refValue=0 outerIter=1
DICPCG:  Solving for phiE, Initial residual = 4.95897e-08, Final residual = 9.45266e-16, No Iterations 166
[5] Bidomain phiE solve debug: proc=5 completed solve, outerIter=1
[1] Bidomain phiE solve debug: proc=1 completed solve, outerIter=1
[3] Bidomain phiE solve debug: proc=3 completed solve, outerIter=1
[4] Bidomain phiE solve debug: proc=4 completed solve, outerIter=1
[2] Bidomain phiE solve debug: proc=2 completed solve, outerIter=1
[0] Bidomain phiE solve debug: proc=0 completed solve, outerIter=1
DICPCG:  Solving for Vm, Initial residual = 0.000134089, Final residual = 2.95343e-16, No Iterations 5
PIMPLE: iteration 2
[5] Bidomain phiE solve debug: proc=5 entering solve, refCell=-1 refValue=0 outerIter=2
[1] Bidomain phiE solve debug: proc=1 entering solve, refCell=-1 refValue=0 outerIter=2
[4] Bidomain phiE solve debug: proc=4 entering solve, refCell=-1 refValue=0 outerIter=2
[2] Bidomain phiE solve debug: proc=2 entering solve, refCell=-1 refValue=0 outerIter=2
[3] Bidomain phiE solve debug: proc=3 entering solve, refCell=-1 refValue=0 outerIter=2
[0] Bidomain phiE solve debug: proc=0 entering solve, refCell=546 refValue=0 outerIter=2
DICPCG:  Solving for phiE, Initial residual = 0.000133411, Final residual = 9.54208e-16, No Iterations 206
[0] Bidomain phiE solve debug: proc=0 completed solve, outerIter=2
[1] Bidomain phiE solve debug: proc=1 completed solve, outerIter=2
[5] Bidomain phiE solve debug: proc=5 completed solve, outerIter=2
[4] Bidomain phiE solve debug: proc=4 completed solve, outerIter=2
[3] Bidomain phiE solve debug: proc=3 completed solve, outerIter=2
[2] Bidomain phiE solve debug: proc=2 completed solve, outerIter=2
DICPCG:  Solving for Vm, Initial residual = 4.98134e-08, Final residual = 1.4287e-17, No Iterations 4
ExecutionTime = 3.59 s  ClockTime = 3 s

Time = 0.0134529

DEBUG cell=0 t=0.0128924→0.0134529 step=0.000560538 V=0.995408 u1=2.0085 u2=0.987269 u3=0 Iion=-1.81847
DEBUG cell=0 t=0.0128924→0.0134529 step=0.00504484 V=0.995408 u1=2.00933 u2=0.986723 u3=0 Iion=-1.81842
[1] Bidomain phiE reference debug: proc=1 point=(0.125 0.05 0.05) refCell=-1 ownsReference=0
[5] Bidomain phiE reference debug: proc=5 point=(0.125 0.05 0.05) refCell=-1 ownsReference=0
[0] Bidomain phiE reference debug: proc=0 point=(0.125 0.05 0.05) refCell=546 ownsReference=1
[3] Bidomain phiE reference debug: proc=3 point=(0.125 0.05 0.05) refCell=-1 ownsReference=0
[4] Bidomain phiE reference debug: proc=4 point=(0.125 0.05 0.05) refCell=-1 ownsReference=0
[2] Bidomain phiE reference debug: proc=2 point=(0.125 0.05 0.05) refCell=-1 ownsReference=0
Bidomain phiE reference summary: ownerCount=1 ownerProc=0 point=(0.125 0.05 0.05)
PIMPLE: iteration 1
[5] Bidomain phiE solve debug: proc=5 entering solve, refCell=-1 refValue=0 outerIter=1
[1] Bidomain phiE solve debug: proc=1 entering solve, refCell=-1 refValue=0 outerIter=1
[2] Bidomain phiE solve debug: proc=2 entering solve, refCell=-1 refValue=0 outerIter=1
[0] Bidomain phiE solve debug: proc=0 entering solve, refCell=546 refValue=0 outerIter=1
[4] Bidomain phiE solve debug: proc=4 entering solve, refCell=-1 refValue=0 outerIter=1
[3] Bidomain phiE solve debug: proc=3 entering solve, refCell=-1 refValue=0 outerIter=1
DICPCG:  Solving for phiE, Initial residual = 4.95614e-08, Final residual = 9.29253e-16, No Iterations 166
[0] Bidomain phiE solve debug: proc=0 completed solve, outerIter=1
[1] Bidomain phiE solve debug: proc=1 completed solve, outerIter=1
[4] Bidomain phiE solve debug: proc=4 completed solve, outerIter=1
[2] Bidomain phiE solve debug: proc=2 completed solve, outerIter=1
[3] Bidomain phiE solve debug: proc=3 completed solve, outerIter=1
[5] Bidomain phiE solve debug: proc=5 completed solve, outerIter=1
DICPCG:  Solving for Vm, Initial residual = 0.000134013, Final residual = 2.95174e-16, No Iterations 5
PIMPLE: iteration 2
[1] Bidomain phiE solve debug: proc=1 entering solve, refCell=-1 refValue=0 outerIter=2
[5] Bidomain phiE solve debug: proc=5 entering solve, refCell=-1 refValue=0 outerIter=2
[2] Bidomain phiE solve debug: proc=2 entering solve, refCell=-1 refValue=0 outerIter=2
[0] Bidomain phiE solve debug: proc=0 entering solve, refCell=546 refValue=0 outerIter=2
[3] Bidomain phiE solve debug: proc=3 entering solve, refCell=-1 refValue=0 outerIter=2
[4] Bidomain phiE solve debug: proc=4 entering solve, refCell=-1 refValue=0 outerIter=2
DICPCG:  Solving for phiE, Initial residual = 0.000133335, Final residual = 9.53345e-16, No Iterations 206
[0] Bidomain phiE solve debug: proc=0 completed solve, outerIter=2
[1] Bidomain phiE solve debug: proc=1 completed solve, outerIter=2
[4] Bidomain phiE solve debug: proc=4 completed solve, outerIter=2
[2] Bidomain phiE solve debug: proc=2 completed solve, outerIter=2
[5] Bidomain phiE solve debug: proc=5 completed solve, outerIter=2
[3] Bidomain phiE solve debug: proc=3 completed solve, outerIter=2
DICPCG:  Solving for Vm, Initial residual = 4.9785e-08, Final residual = 1.42789e-17, No Iterations 4
ExecutionTime = 3.77 s  ClockTime = 4 s

Time = 0.0140134

[...]
[5] Bidomain phiE reference debug: proc=5 point=(0.125 0.05 0.05) refCell=-1 ownsReference=0
[0] Bidomain phiE reference debug: proc=0 point=(0.125 0.05 0.05) refCell=546 ownsReference=1
[2] Bidomain phiE reference debug: proc=2 point=(0.125 0.05 0.05) refCell=-1 ownsReference=0
[4] Bidomain phiE reference debug: proc=4 point=(0.125 0.05 0.05) refCell=-1 ownsReference=0
[3] Bidomain phiE reference debug: proc=3 point=(0.125 0.05 0.05) refCell=-1 ownsReference=0
[1] Bidomain phiE reference debug: proc=1 point=(0.125 0.05 0.05) refCell=-1 ownsReference=0
Bidomain phiE reference summary: ownerCount=1 ownerProc=0 point=(0.125 0.05 0.05)
PIMPLE: iteration 1
[0] Bidomain phiE solve debug: proc=0 entering solve, refCell=546 refValue=0 outerIter=1
[5] Bidomain phiE solve debug: proc=5 entering solve, refCell=-1 refValue=0 outerIter=1
[2] Bidomain phiE solve debug: proc=2 entering solve, refCell=-1 refValue=0 outerIter=1
[4] Bidomain phiE solve debug: proc=4 entering solve, refCell=-1 refValue=0 outerIter=1
[3] Bidomain phiE solve debug: proc=3 entering solve, refCell=-1 refValue=0 outerIter=1
[1] Bidomain phiE solve debug: proc=1 entering solve, refCell=-1 refValue=0 outerIter=1
DICPCG:  Solving for phiE, Initial residual = 4.17108e-08, Final residual = 9.95466e-16, No Iterations 164
[3] Bidomain phiE solve debug: proc=3 completed solve, outerIter=1
[5] Bidomain phiE solve debug: proc=5 completed solve, outerIter=1
[0] Bidomain phiE solve debug: proc=0 completed solve, outerIter=1
[2] Bidomain phiE solve debug: proc=2 completed solve, outerIter=1
[1] Bidomain phiE solve debug: proc=1 completed solve, outerIter=1
[4] Bidomain phiE solve debug: proc=4 completed solve, outerIter=1
DICPCG:  Solving for Vm, Initial residual = 0.000112792, Final residual = 2.4837e-16, No Iterations 5
PIMPLE: iteration 2
[3] Bidomain phiE solve debug: proc=3 entering solve, refCell=-1 refValue=0 outerIter=2
[1] Bidomain phiE solve debug: proc=1 entering solve, refCell=-1 refValue=0 outerIter=2
[4] Bidomain phiE solve debug: proc=4 entering solve, refCell=-1 refValue=0 outerIter=2
[5] Bidomain phiE solve debug: proc=5 entering solve, refCell=-1 refValue=0 outerIter=2
[2] Bidomain phiE solve debug: proc=2 entering solve, refCell=-1 refValue=0 outerIter=2
[0] Bidomain phiE solve debug: proc=0 entering solve, refCell=546 refValue=0 outerIter=2
DICPCG:  Solving for phiE, Initial residual = 0.000112221, Final residual = 8.7542e-16, No Iterations 205
[2] Bidomain phiE solve debug: proc=2 completed solve, outerIter=2
[4] Bidomain phiE solve debug: proc=4 completed solve, outerIter=2
[3] Bidomain phiE solve debug: proc=3 completed solve, outerIter=2
[5] Bidomain phiE solve debug: proc=5 completed solve, outerIter=2
[0] Bidomain phiE solve debug: proc=0 completed solve, outerIter=2
[1] Bidomain phiE solve debug: proc=1 completed solve, outerIter=2
DICPCG:  Solving for Vm, Initial residual = 4.19026e-08, Final residual = 1.20169e-17, No Iterations 4
ExecutionTime = 59.66 s  ClockTime = 60 s

Time = 0.19787

DEBUG cell=0 t=0.197309→0.19787 step=0.000560538 V=1.07936 u1=2.28036 u2=0.834993 u3=0 Iion=-1.80984
DEBUG cell=0 t=0.197309→0.19787 step=0.00504484 V=1.07936 u1=2.28118 u2=0.834601 u3=0 Iion=-1.80983
[3] Bidomain phiE reference debug: proc=3 point=(0.125 0.05 0.05) refCell=-1 ownsReference=0
[5] Bidomain phiE reference debug: proc=5 point=(0.125 0.05 0.05) refCell=-1 ownsReference=0
[0] Bidomain phiE reference debug: proc=0 point=(0.125 0.05 0.05) refCell=546 ownsReference=1
[4] Bidomain phiE reference debug: proc=4 point=(0.125 0.05 0.05) refCell=-1 ownsReference=0
[2] Bidomain phiE reference debug: proc=2 point=(0.125 0.05 0.05) refCell=-1 ownsReference=0
[1] Bidomain phiE reference debug: proc=1 point=(0.125 0.05 0.05) refCell=-1 ownsReference=0
Bidomain phiE reference summary: ownerCount=1 ownerProc=0 point=(0.125 0.05 0.05)
PIMPLE: iteration 1
[1] Bidomain phiE solve debug: proc=1 entering solve, refCell=-1 refValue=0 outerIter=1
[4] Bidomain phiE solve debug: proc=4 entering solve, refCell=-1 refValue=0 outerIter=1
[0] Bidomain phiE solve debug: proc=0 entering solve, refCell=546 refValue=0 outerIter=1
[5] Bidomain phiE solve debug: proc=5 entering solve, refCell=-1 refValue=0 outerIter=1
[3] Bidomain phiE solve debug: proc=3 entering solve, refCell=-1 refValue=0 outerIter=1
[2] Bidomain phiE solve debug: proc=2 entering solve, refCell=-1 refValue=0 outerIter=1
DICPCG:  Solving for phiE, Initial residual = 4.16905e-08, Final residual = 8.61847e-16, No Iterations 165
[5] Bidomain phiE solve debug: proc=5 completed solve, outerIter=1
[2] Bidomain phiE solve debug: proc=2 completed solve, outerIter=1
[4] Bidomain phiE solve debug: proc=4 completed solve, outerIter=1
[3] Bidomain phiE solve debug: proc=3 completed solve, outerIter=1
[1] Bidomain phiE solve debug: proc=1 completed solve, outerIter=1
[0] Bidomain phiE solve debug: proc=0 completed solve, outerIter=1
DICPCG:  Solving for Vm, Initial residual = 0.000112737, Final residual = 2.4825e-16, No Iterations 5
PIMPLE: iteration 2
[1] Bidomain phiE solve debug: proc=1 entering solve, refCell=-1 refValue=0 outerIter=2
[2] Bidomain phiE solve debug: proc=2 entering solve, refCell=-1 refValue=0 outerIter=2
[3] Bidomain phiE solve debug: proc=3 entering solve, refCell=-1 refValue=0 outerIter=2
[4] Bidomain phiE solve debug: proc=4 entering solve, refCell=-1 refValue=0 outerIter=2
[5] Bidomain phiE solve debug: proc=5 entering solve, refCell=-1 refValue=0 outerIter=2
[0] Bidomain phiE solve debug: proc=0 entering solve, refCell=546 refValue=0 outerIter=2
DICPCG:  Solving for phiE, Initial residual = 0.000112167, Final residual = 8.74932e-16, No Iterations 205
[2] Bidomain phiE solve debug: proc=2 completed solve, outerIter=2
[5] Bidomain phiE solve debug: proc=5 completed solve, outerIter=2
[3] Bidomain phiE solve debug: proc=3 completed solve, outerIter=2
[4] Bidomain phiE solve debug: proc=4 completed solve, outerIter=2
[1] Bidomain phiE solve debug: proc=1 completed solve, outerIter=2
[0] Bidomain phiE solve debug: proc=0 completed solve, outerIter=2
DICPCG:  Solving for Vm, Initial residual = 4.18823e-08, Final residual = 1.2011e-17, No Iterations 4
ExecutionTime = 59.82 s  ClockTime = 60 s

Time = 0.19843

DEBUG cell=0 t=0.19787→0.19843 step=0.000560538 V=1.07961 u1=2.28118 u2=0.834601 u3=0 Iion=-1.80983
DEBUG cell=0 t=0.19787→0.19843 step=0.00504484 V=1.07961 u1=2.28199 u2=0.83421 u3=0 Iion=-1.80982
[1] Bidomain phiE reference debug: proc=1 point=(0.125 0.05 0.05) refCell=-1 ownsReference=0
[5] Bidomain phiE reference debug: proc=5 point=(0.125 0.05 0.05) refCell=-1 ownsReference=0
[0] Bidomain phiE reference debug: proc=0 point=(0.125 0.05 0.05) refCell=546 ownsReference=1
[2] Bidomain phiE reference debug: proc=2 point=(0.125 0.05 0.05) refCell=-1 ownsReference=0
[4] Bidomain phiE reference debug: proc=4 point=(0.125 0.05 0.05) refCell=-1 ownsReference=0
[3] Bidomain phiE reference debug: proc=3 point=(0.125 0.05 0.05) refCell=-1 ownsReference=0
Bidomain phiE reference summary: ownerCount=1 ownerProc=0 point=(0.125 0.05 0.05)
PIMPLE: iteration 1
[1] Bidomain phiE solve debug: proc=1 entering solve, refCell=-1 refValue=0 outerIter=1
[2] Bidomain phiE solve debug: proc=2 entering solve, refCell=-1 refValue=0 outerIter=1
[0] Bidomain phiE solve debug: proc=0 entering solve, refCell=546 refValue=0 outerIter=1
[4] Bidomain phiE solve debug: proc=4 entering solve, refCell=-1 refValue=0 outerIter=1
[5] Bidomain phiE solve debug: proc=5 entering solve, refCell=-1 refValue=0 outerIter=1
[3] Bidomain phiE solve debug: proc=3 entering solve, refCell=-1 refValue=0 outerIter=1
DICPCG:  Solving for phiE, Initial residual = 4.16703e-08, Final residual = 8.62871e-16, No Iterations 165
[5] Bidomain phiE solve debug: proc=5 completed solve, outerIter=1
[2] Bidomain phiE solve debug: proc=2 completed solve, outerIter=1
[4] Bidomain phiE solve debug: proc=4 completed solve, outerIter=1
[3] Bidomain phiE solve debug: proc=3 completed solve, outerIter=1
[0] Bidomain phiE solve debug: proc=0 completed solve, outerIter=1
[1] Bidomain phiE solve debug: proc=1 completed solve, outerIter=1
DICPCG:  Solving for Vm, Initial residual = 0.000112683, Final residual = 2.48129e-16, No Iterations 5
PIMPLE: iteration 2
[1] Bidomain phiE solve debug: proc=1 entering solve, refCell=-1 refValue=0 outerIter=2
[0] Bidomain phiE solve debug: proc=0 entering solve, refCell=546 refValue=0 outerIter=2
[4] Bidomain phiE solve debug: proc=4 entering solve, refCell=-1 refValue=0 outerIter=2
[5] Bidomain phiE solve debug: proc=5 entering solve, refCell=-1 refValue=0 outerIter=2
[3] Bidomain phiE solve debug: proc=3 entering solve, refCell=-1 refValue=0 outerIter=2
[2] Bidomain phiE solve debug: proc=2 entering solve, refCell=-1 refValue=0 outerIter=2
DICPCG:  Solving for phiE, Initial residual = 0.000112112, Final residual = 8.7458e-16, No Iterations 205
[5] Bidomain phiE solve debug: proc=5 completed solve, outerIter=2
[2] Bidomain phiE solve debug: proc=2 completed solve, outerIter=2
[4] Bidomain phiE solve debug: proc=4 completed solve, outerIter=2
[3] Bidomain phiE solve debug: proc=3 completed solve, outerIter=2
[0] Bidomain phiE solve debug: proc=0 completed solve, outerIter=2
[1] Bidomain phiE solve debug: proc=1 completed solve, outerIter=2
DICPCG:  Solving for Vm, Initial residual = 4.18619e-08, Final residual = 1.20052e-17, No Iterations 4
ExecutionTime = 59.98 s  ClockTime = 60 s

Time = 0.198991

DEBUG cell=0 t=0.19843→0.198991 step=0.000560538 V=1.07985 u1=2.28199 u2=0.83421 u3=0 Iion=-1.80982
DEBUG cell=0 t=0.19843→0.198991 step=0.00504484 V=1.07985 u1=2.28281 u2=0.833819 u3=0 Iion=-1.80982
[3] Bidomain phiE reference debug: proc=3 point=(0.125 0.05 0.05) refCell=-1 ownsReference=0
[5] Bidomain phiE reference debug: proc=5 point=(0.125 0.05 0.05) refCell=-1 ownsReference=0
[0] Bidomain phiE reference debug: proc=0 point=(0.125 0.05 0.05) refCell=546 ownsReference=1
Bidomain phiE reference summary: ownerCount=1 ownerProc=0 point=(0.125 0.05 0.05)
[4] Bidomain phiE reference debug: proc=4 point=(0.125 0.05 0.05) refCell=-1 ownsReference=0
[2] Bidomain phiE reference debug: proc=2 point=(0.125 0.05 0.05) refCell=-1 ownsReference=0
[1] Bidomain phiE reference debug: proc=1 point=(0.125 0.05 0.05) refCell=-1 ownsReference=0
PIMPLE: iteration 1
[1] Bidomain phiE solve debug: proc=1 entering solve, refCell=-1 refValue=0 outerIter=1
[2] Bidomain phiE solve debug: proc=2 entering solve, refCell=-1 refValue=0 outerIter=1
[4] Bidomain phiE solve debug: proc=4 entering solve, refCell=-1 refValue=0 outerIter=1
[3] Bidomain phiE solve debug: proc=3 entering solve, refCell=-1 refValue=0 outerIter=1
[0] Bidomain phiE solve debug: proc=0 entering solve, refCell=546 refValue=0 outerIter=1
[5] Bidomain phiE solve debug: proc=5 entering solve, refCell=-1 refValue=0 outerIter=1
DICPCG:  Solving for phiE, Initial residual = 4.16501e-08, Final residual = 8.62707e-16, No Iterations 165
[0] Bidomain phiE solve debug: proc=0 completed solve, outerIter=1
[1] Bidomain phiE solve debug: proc=1 completed solve, outerIter=1
[2] Bidomain phiE solve debug: proc=2 completed solve, outerIter=1
[5] Bidomain phiE solve debug: proc=5 completed solve, outerIter=1
[4] Bidomain phiE solve debug: proc=4 completed solve, outerIter=1
[3] Bidomain phiE solve debug: proc=3 completed solve, outerIter=1
DICPCG:  Solving for Vm, Initial residual = 0.000112628, Final residual = 2.48009e-16, No Iterations 5
PIMPLE: iteration 2
[1] Bidomain phiE solve debug: proc=1 entering solve, refCell=-1 refValue=0 outerIter=2
[4] Bidomain phiE solve debug: proc=4 entering solve, refCell=-1 refValue=0 outerIter=2
[3] Bidomain phiE solve debug: proc=3 entering solve, refCell=-1 refValue=0 outerIter=2
[2] Bidomain phiE solve debug: proc=2 entering solve, refCell=-1 refValue=0 outerIter=2
[5] Bidomain phiE solve debug: proc=5 entering solve, refCell=-1 refValue=0 outerIter=2
[0] Bidomain phiE solve debug: proc=0 entering solve, refCell=546 refValue=0 outerIter=2
DICPCG:  Solving for phiE, Initial residual = 0.000112058, Final residual = 8.73837e-16, No Iterations 205
[5] Bidomain phiE solve debug: proc=5 completed solve, outerIter=2
[4] Bidomain phiE solve debug: proc=4 completed solve, outerIter=2
[2] Bidomain phiE solve debug: proc=2 completed solve, outerIter=2
[3] Bidomain phiE solve debug: proc=3 completed solve, outerIter=2
[0] Bidomain phiE solve debug: proc=0 completed solve, outerIter=2
[1] Bidomain phiE solve debug: proc=1 completed solve, outerIter=2
DICPCG:  Solving for Vm, Initial residual = 4.18416e-08, Final residual = 1.19994e-17, No Iterations 4
ExecutionTime = 60.15 s  ClockTime = 60 s

Time = 0.199552

DEBUG cell=0 t=0.198991→0.199552 step=0.000560538 V=1.08009 u1=2.28281 u2=0.833819 u3=0 Iion=-1.80982
DEBUG cell=0 t=0.198991→0.199552 step=0.00504484 V=1.08009 u1=2.28363 u2=0.833428 u3=0 Iion=-1.80981
[5] Bidomain phiE reference debug: proc=5 point=(0.125 0.05 0.05) refCell=-1 ownsReference=0
[0] Bidomain phiE reference debug: proc=0 point=(0.125 0.05 0.05) refCell=546 ownsReference=1
[2] Bidomain phiE reference debug: proc=2 point=(0.125 0.05 0.05) refCell=-1 ownsReference=0
[4] Bidomain phiE reference debug: proc=4 point=(0.125 0.05 0.05) refCell=-1 ownsReference=0
[3] Bidomain phiE reference debug: proc=3 point=(0.125 0.05 0.05) refCell=-1 ownsReference=0
[1] Bidomain phiE reference debug: proc=1 point=(0.125 0.05 0.05) refCell=-1 ownsReference=0
Bidomain phiE reference summary: ownerCount=1 ownerProc=0 point=(0.125 0.05 0.05)
PIMPLE: iteration 1
[0] Bidomain phiE solve debug: proc=0 entering solve, refCell=546 refValue=0 outerIter=1
[1] Bidomain phiE solve debug: proc=1 entering solve, refCell=-1 refValue=0 outerIter=1
[3] Bidomain phiE solve debug: proc=3 entering solve, refCell=-1 refValue=0 outerIter=1
[5] Bidomain phiE solve debug: proc=5 entering solve, refCell=-1 refValue=0 outerIter=1
[2] Bidomain phiE solve debug: proc=2 entering solve, refCell=-1 refValue=0 outerIter=1
[4] Bidomain phiE solve debug: proc=4 entering solve, refCell=-1 refValue=0 outerIter=1
DICPCG:  Solving for phiE, Initial residual = 4.16299e-08, Final residual = 8.62156e-16, No Iterations 165
[2] Bidomain phiE solve debug: proc=2 completed solve, outerIter=1
[0] Bidomain phiE solve debug: proc=0 completed solve, outerIter=1
[1] Bidomain phiE solve debug: proc=1 completed solve, outerIter=1
[4] Bidomain phiE solve debug: proc=4 completed solve, outerIter=1
[5] Bidomain phiE solve debug: proc=5 completed solve, outerIter=1
[3] Bidomain phiE solve debug: proc=3 completed solve, outerIter=1
DICPCG:  Solving for Vm, Initial residual = 0.000112573, Final residual = 2.47888e-16, No Iterations 5
PIMPLE: iteration 2
[5] Bidomain phiE solve debug: proc=5 entering solve, refCell=-1 refValue=0 outerIter=2
[0] Bidomain phiE solve debug: proc=0 entering solve, refCell=546 refValue=0 outerIter=2
[2] Bidomain phiE solve debug: proc=2 entering solve, refCell=-1 refValue=0 outerIter=2
[3] Bidomain phiE solve debug: proc=3 entering solve, refCell=-1 refValue=0 outerIter=2
[1] Bidomain phiE solve debug: proc=1 entering solve, refCell=-1 refValue=0 outerIter=2
[4] Bidomain phiE solve debug: proc=4 entering solve, refCell=-1 refValue=0 outerIter=2
DICPCG:  Solving for phiE, Initial residual = 0.000112004, Final residual = 8.73549e-16, No Iterations 205
[2] Bidomain phiE solve debug: proc=2 completed solve, outerIter=2
[0] Bidomain phiE solve debug: proc=0 completed solve, outerIter=2
[1] Bidomain phiE solve debug: proc=1 completed solve, outerIter=2
[4] Bidomain phiE solve debug: proc=4 completed solve, outerIter=2
[5] Bidomain phiE solve debug: proc=5 completed solve, outerIter=2
[3] Bidomain phiE solve debug: proc=3 completed solve, outerIter=2
DICPCG:  Solving for Vm, Initial residual = 4.18214e-08, Final residual = 1.19936e-17, No Iterations 4
ExecutionTime = 60.3 s  ClockTime = 60 s

Time = 0.200112

DEBUG cell=0 t=0.199552→0.200112 step=0.000560538 V=1.08034 u1=2.28363 u2=0.833428 u3=0 Iion=-1.80981
DEBUG cell=0 t=0.199552→0.200112 step=0.00504484 V=1.08034 u1=2.28444 u2=0.833037 u3=0 Iion=-1.8098
[5] Bidomain phiE reference debug: proc=5 point=(0.125 0.05 0.05) refCell=-1 ownsReference=0
[1] Bidomain phiE reference debug: proc=1 point=(0.125 0.05 0.05) refCell=-1 ownsReference=0
[0] Bidomain phiE reference debug: proc=0 point=(0.125 0.05 0.05) refCell=546 ownsReference=1
Bidomain phiE reference summary: ownerCount=1 ownerProc=0 point=(0.125 0.05 0.05)
[2] Bidomain phiE reference debug: proc=2 point=(0.125 0.05 0.05) refCell=-1 ownsReference=0
[3] Bidomain phiE reference debug: proc=3 point=(0.125 0.05 0.05) refCell=-1 ownsReference=0
[4] Bidomain phiE reference debug: proc=4 point=(0.125 0.05 0.05) refCell=-1 ownsReference=0
PIMPLE: iteration 1
[5] Bidomain phiE solve debug: proc=5 entering solve, refCell=-1 refValue=0 outerIter=1
[4] Bidomain phiE solve debug: proc=4 entering solve, refCell=-1 refValue=0 outerIter=1
[3] Bidomain phiE solve debug: proc=3 entering solve, refCell=-1 refValue=0 outerIter=1
[0] Bidomain phiE solve debug: proc=0 entering solve, refCell=546 refValue=0 outerIter=1
[2] Bidomain phiE solve debug: proc=2 entering solve, refCell=-1 refValue=0 outerIter=1
[1] Bidomain phiE solve debug: proc=1 entering solve, refCell=-1 refValue=0 outerIter=1
DICPCG:  Solving for phiE, Initial residual = 4.16097e-08, Final residual = 8.61923e-16, No Iterations 165
[0] Bidomain phiE solve debug: proc=0 completed solve, outerIter=1
[3] Bidomain phiE solve debug: proc=3 completed solve, outerIter=1
[4] Bidomain phiE solve debug: proc=4 completed solve, outerIter=1
[2] Bidomain phiE solve debug: proc=2 completed solve, outerIter=1
[1] Bidomain phiE solve debug: proc=1 completed solve, outerIter=1
[5] Bidomain phiE solve debug: proc=5 completed solve, outerIter=1
DICPCG:  Solving for Vm, Initial residual = 0.000112519, Final residual = 2.47768e-16, No Iterations 5
PIMPLE: iteration 2
[5] Bidomain phiE solve debug: proc=5 entering solve, refCell=-1 refValue=0 outerIter=2
[4] Bidomain phiE solve debug: proc=4 entering solve, refCell=-1 refValue=0 outerIter=2
[0] Bidomain phiE solve debug: proc=0 entering solve, refCell=546 refValue=0 outerIter=2
[2] Bidomain phiE solve debug: proc=2 entering solve, refCell=-1 refValue=0 outerIter=2
[3] Bidomain phiE solve debug: proc=3 entering solve, refCell=-1 refValue=0 outerIter=2
[1] Bidomain phiE solve debug: proc=1 entering solve, refCell=-1 refValue=0 outerIter=2
DICPCG:  Solving for phiE, Initial residual = 0.00011195, Final residual = 8.73036e-16, No Iterations 205
[1] Bidomain phiE solve debug: proc=1 completed solve, outerIter=2
[0] Bidomain phiE solve debug: proc=0 completed solve, outerIter=2
[2] Bidomain phiE solve debug: proc=2 completed solve, outerIter=2
[3] Bidomain phiE solve debug: proc=3 completed solve, outerIter=2
[4] Bidomain phiE solve debug: proc=4 completed solve, outerIter=2
[5] Bidomain phiE solve debug: proc=5 completed solve, outerIter=2
DICPCG:  Solving for Vm, Initial residual = 4.18011e-08, Final residual = 1.19877e-17, No Iterations 4

Bidomain manufactured-solution error summary (t = 0.200112):
-------------------------------------------------
Field     L1-error       L2-error       Linf-error
Vm        0.000856178   0.00117192   0.0034476
phiE      0.0493334   0.0494248   0.057706
phiI      0.049353   0.0493869   0.0545501
u1        0.000124643   0.000173504   0.000622894
u2        5.42405e-05   7.46046e-05   0.000220604
-------------------------------------------------
Bidomain manufactured PDE residuals evaluated on exact fields:
-------------------------------------------------
Equation  L1-residual    L2-residual    Linf-residual
Vm        0.00189832   0.00259726   0.00731222
phiE      8.75668e-09   1.19808e-08   3.37302e-08
-------------------------------------------------
ExecutionTime = 60.48 s  ClockTime = 61 s


End

Finalising parallel run
