/*---------------------------------------------------------------------------*\
| =========                 |                                                 |
| \\      /  F ield         | OpenFOAM: The Open Source CFD Toolbox           |
|  \\    /   O peration     | Version:  2412                                  |
|   \\  /    A nd           | Website:  www.openfoam.com                      |
|    \\/     M anipulation  |                                                 |
\*---------------------------------------------------------------------------*/
Build  : _8dbc61e11c-20241220 OPENFOAM=2412 version=v2412
Arch   : "LSB;label=32;scalar=64"
Exec   : singleCellElectroActivationFoam
Date   : Dec 17 2025
Time   : 23:08:45
Host   : macbook
PID    : 43959
I/O    : uncollated
Case   : /Users/simaocastro/cardiacFoam/tutorials/singleCell
nProcs : 1
trapFpe: Floating point exception trapping enabled (FOAM_SIGFPE).
fileModificationChecking : Monitoring run-time modified files using timeStampMaster (fileModificationSkew 5, maxFileModificationPolls 20)
allowSystemOperations : Allowing user-supplied system call operations

// * * * * * * * * * * * * * * * * * * * * * * * * * * * * * * * * * * * * * //
Create time

Reading ionic model and tissue properties

Reading numerical solver properties

Reading stimulus protocol

Selecting ionic model: BuenoOrovio
Using tissue 'endocardialCells'

Initialize Bueno Orovio constants:

35
(
0
1.56
0.3
0.13
0.2
0.006
75
10
1.4506
6
140
200
0.016
280
0.1
470
6
40
1.2
2
0.65
2.7342
2
2.0994
0.9087
2.9013
0.0273
0.78
20
1
0.4
1000
2
0
0
)

initial states:
4(0 1 1 0)

Time = 1e-05
Selecting ODE solver Euler

Time = 2e-05

Time = 3e-05

Time = 4e-05

Time = 5e-05

Time = 6e-05

Time = 7e-05

Time = 8e-05

Time = 9e-05

Time = 0.0001

Time = 0.00011

Time = 0.00012

Time = 0.00013

Time = 0.00014

Time = 0.00015

Time = 0.00016

Time = 0.00017

Time = 0.00018

Time = 0.00019

Time = 0.0002

Time = 0.00021

Time = 0.00022

Time = 0.00023

Time = 0.00024

Time = 0.00025

Time = 0.00026

Time = 0.00027

Time = 0.00028

Time = 0.00029

Time = 0.0003

Time = 0.00031

Time = 0.00032

Time = 0.00033

Time = 0.00034

Time = 0.00035

Time = 0.00036

Time = 0.00037

Time = 0.00038

Time = 0.00039

Time = 0.0004

Time = 0.00041

Time = 0.00042

Time = 0.00043

Time = 0.00044

Time = 0.00045

Time = 0.00046

Time = 0.00047

Time = 0.00048

Time = 0.00049

Time = 0.0005

Time = 0.00051

Time = 0.00052

Time = 0.00053

Time = 0.00054

Time = 0.00055

Time = 0.00056

Time = 0.00057

Time = 0.00058

Time = 0.00059

Time = 0.0006

Time = 0.00061

Time = 0.00062

Time = 0.00063

Time = 0.00064

Time = 0.00065

Time = 0.00066

Time = 0.00067

Time = 0.00068

Time = 0.00069

Time = 0.0007

Time = 0.00071

Time = 0.00072

Time = 0.00073

Time = 0.00074

Time = 0.00075

Time = 0.00076

Time = 0.00077

Time = 0.00078

Time = 0.00079

Time = 0.0008

Time = 0.00081

Time = 0.00082

Time = 0.00083

Time = 0.00084

Time = 0.00085

Time = 0.00086

Time = 0.00087

Time = 0.00088

Time = 0.00089

Time = 0.0009

Time = 0.00091

Time = 0.00092

Time = 0.00093

Time = 0.00094

Time = 0.00095

Time = 0.00096

Time = 0.00097

Time = 0.00098

Time = 0.00099

Time = 0.001

Time = 0.00101

Time = 0.00102

Time = 0.00103

Time = 0.00104

Time = 0.00105

Time = 0.00106

Time = 0.00107

Time = 0.00108

Time = 0.00109

Time = 0.0011

Time = 0.00111

Time = 0.00112

Time = 0.00113

Time = 0.00114

Time = 0.00115

Time = 0.00116

Time = 0.00117

Time = 0.00118

Time = 0.00119

Time = 0.0012

Time = 0.00121

Time = 0.00122

Time = 0.00123

Time = 0.00124

Time = 0.00125

Time = 0.00126

Time = 0.00127

Time = 0.00128

Time = 0.00129

Time = 0.0013

Time = 0.00131

Time = 0.00132

Time = 0.00133

Time = 0.00134

Time = 0.00135

Time = 0.00136

Time = 0.00137

Time = 0.00138

Time = 0.00139

Time = 0.0014

Time = 0.00141

Time = 0.00142

Time = 0.00143

Time = 0.00144

Time = 0.00145

Time = 0.00146

Time = 0.00147

Time = 0.00148

Time = 0.00149

Time = 0.0015

Time = 0.00151

Time = 0.00152

Time = 0.00153

Time = 0.00154

Time = 0.00155

Time = 0.00156

Time = 0.00157

Time = 0.00158

Time = 0.00159

Time = 0.0016

Time = 0.00161

Time = 0.00162

Time = 0.00163

Time = 0.00164

Time = 0.00165

Time = 0.00166

Time = 0.00167

Time = 0.00168

Time = 0.00169

Time = 0.0017

Time = 0.00171

Time = 0.00172

Time = 0.00173

Time = 0.00174

Time = 0.00175

Time = 0.00176

Time = 0.00177

Time = 0.00178

Time = 0.00179

Time = 0.0018

Time = 0.00181

Time = 0.00182

Time = 0.00183

Time = 0.00184

Time = 0.00185

Time = 0.00186

Time = 0.00187

Time = 0.00188

Time = 0.00189

Time = 0.0019

Time = 0.00191

Time = 0.00192

Time = 0.00193

Time = 0.00194

Time = 0.00195

Time = 0.00196

Time = 0.00197

Time = 0.00198

Time = 0.00199

Time = 0.002

Time = 0.00201

Time = 0.00202

Time = 0.00203

Time = 0.00204

Time = 0.00205

Time = 0.00206

Time = 0.00207

Time = 0.00208

Time = 0.00209

Time = 0.0021

Time = 0.00211

Time = 0.00212

Time = 0.00213

Time = 0.00214

Time = 0.00215

Time = 0.00216

Time = 0.00217

Time = 0.00218

Time = 0.00219

Time = 0.0022

Time = 0.00221

Time = 0.00222

Time = 0.00223

Time = 0.00224

Time = 0.00225

Time = 0.00226

Time = 0.00227

Time = 0.00228

Time = 0.00229

Time = 0.0023

Time = 0.00231

Time = 0.00232

Time = 0.00233

Time = 0.00234

Time = 0.00235

Time = 0.00236

Time = 0.00237

Time = 0.00238

Time = 0.00239

Time = 0.0024

Time = 0.00241

Time = 0.00242

Time = 0.00243

Time = 0.00244

Time = 0.00245

Time = 0.00246

Time = 0.00247

Time = 0.00248

Time = 0.00249

Time = 0.0025

Time = 0.00251

Time = 0.00252

Time = 0.00253

Time = 0.00254

Time = 0.00255

Time = 0.00256

Time = 0.00257

Time = 0.00258

Time = 0.00259

Time = 0.0026

Time = 0.00261

Time = 0.00262

Time = 0.00263

Time = 0.00264

Time = 0.00265

Time = 0.00266

Time = 0.00267

Time = 0.00268

Time = 0.00269

Time = 0.0027

Time = 0.00271

Time = 0.00272

Time = 0.00273

Time = 0.00274

Time = 0.00275

Time = 0.00276

Time = 0.00277

Time = 0.00278

Time = 0.00279

Time = 0.0028

Time = 0.00281

Time = 0.00282

Time = 0.00283

Time = 0.00284

Time = 0.00285

Time = 0.00286

Time = 0.00287

Time = 0.00288

Time = 0.00289

Time = 0.0029

Time = 0.00291

Time = 0.00292

Time = 0.00293

Time = 0.00294

Time = 0.00295

Time = 0.00296

Time = 0.00297

Time = 0.00298

Time = 0.00299

Time = 0.003

Time = 0.00301

Time = 0.00302

Time = 0.00303

Time = 0.00304

Time = 0.00305

Time = 0.00306

Time = 0.00307

Time = 0.00308

Time = 0.00309

Time = 0.0031

Time = 0.00311

Time = 0.00312

Time = 0.00313

Time = 0.00314

Time = 0.00315

Time = 0.00316

Time = 0.00317

Time = 0.00318

Time = 0.00319

Time = 0.0032

Time = 0.00321

Time = 0.00322

Time = 0.00323

Time = 0.00324

Time = 0.00325

Time = 0.00326

Time = 0.00327

Time = 0.00328

Time = 0.00329

Time = 0.0033

Time = 0.00331

Time = 0.00332

Time = 0.00333

Time = 0.00334

Time = 0.00335

Time = 0.00336

Time = 0.00337

Time = 0.00338

Time = 0.00339

Time = 0.0034

Time = 0.00341

Time = 0.00342

Time = 0.00343

Time = 0.00344

Time = 0.00345

Time = 0.00346

Time = 0.00347

Time = 0.00348

Time = 0.00349

Time = 0.0035

Time = 0.00351

Time = 0.00352

Time = 0.00353

Time = 0.00354

Time = 0.00355

Time = 0.00356

Time = 0.00357

Time = 0.00358

Time = 0.00359

Time = 0.0036

Time = 0.00361

Time = 0.00362

Time = 0.00363

Time = 0.00364

Time = 0.00365

Time = 0.00366

Time = 0.00367

Time = 0.00368

Time = 0.00369

Time = 0.0037

Time = 0.00371

Time = 0.00372

Time = 0.00373

Time = 0.00374

Time = 0.00375

Time = 0.00376

Time = 0.00377

Time = 0.00378

Time = 0.00379

Time = 0.0038

Time = 0.00381

Time = 0.00382

Time = 0.00383

Time = 0.00384

Time = 0.00385

Time = 0.00386

Time = 0.00387

Time = 0.00388

Time = 0.00389

Time = 0.0039

Time = 0.00391

Time = 0.00392

Time = 0.00393

Time = 0.00394

Time = 0.00395

Time = 0.00396

Time = 0.00397

Time = 0.00398

Time = 0.00399

Time = 0.004

Time = 0.00401

Time = 0.00402

Time = 0.00403

Time = 0.00404

Time = 0.00405

Time = 0.00406

Time = 0.00407

Time = 0.00408

Time = 0.00409

Time = 0.0041

Time = 0.00411

Time = 0.00412

Time = 0.00413

Time = 0.00414

Time = 0.00415

Time = 0.00416

Time = 0.00417

Time = 0.00418

Time = 0.00419

Time = 0.0042

Time = 0.00421

Time = 0.00422

Time = 0.00423

Time = 0.00424

Time = 0.00425

Time = 0.00426

Time = 0.00427

Time = 0.00428

Time = 0.00429

Time = 0.0043

Time = 0.00431

Time = 0.00432

Time = 0.00433

Time = 0.00434

Time = 0.00435

Time = 0.00436

Time = 0.00437

Time = 0.00438

Time = 0.00439

Time = 0.0044

Time = 0.00441

Time = 0.00442

Time = 0.00443

Time = 0.00444

Time = 0.00445

Time = 0.00446

Time = 0.00447

Time = 0.00448

Time = 0.00449

Time = 0.0045

Time = 0.00451

Time = 0.00452

Time = 0.00453

Time = 0.00454

Time = 0.00455

Time = 0.00456

Time = 0.00457

Time = 0.00458

Time = 0.00459

Time = 0.0046

Time = 0.00461

Time = 0.00462

Time = 0.00463

Time = 0.00464

Time = 0.00465

Time = 0.00466

Time = 0.00467

Time = 0.00468

Time = 0.00469

Time = 0.0047

Time = 0.00471

Time = 0.00472

Time = 0.00473

Time = 0.00474

Time = 0.00475

Time = 0.00476

Time = 0.00477

Time = 0.00478

Time = 0.00479

Time = 0.0048

Time = 0.00481

Time = 0.00482

Time = 0.00483

Time = 0.00484

Time = 0.00485

Time = 0.00486

Time = 0.00487

Time = 0.00488

Time = 0.00489

Time = 0.0049

Time = 0.00491

Time = 0.00492

Time = 0.00493

Time = 0.00494

Time = 0.00495

Time = 0.00496

Time = 0.00497

Time = 0.00498

Time = 0.00499

Time = 0.005

Time = 0.00501

Time = 0.00502

Time = 0.00503

Time = 0.00504

Time = 0.00505

Time = 0.00506

Time = 0.00507

Time = 0.00508

Time = 0.00509

Time = 0.0051

Time = 0.00511

Time = 0.00512

Time = 0.00513

Time = 0.00514

Time = 0.00515

Time = 0.00516

Time = 0.00517

Time = 0.00518

Time = 0.00519

Time = 0.0052

Time = 0.00521

Time = 0.00522

Time = 0.00523

Time = 0.00524

Time = 0.00525

Time = 0.00526

Time = 0.00527

Time = 0.00528

Time = 0.00529

Time = 0.0053

Time = 0.00531

Time = 0.00532

Time = 0.00533

Time = 0.00534

Time = 0.00535

Time = 0.00536

Time = 0.00537

Time = 0.00538

Time = 0.00539

Time = 0.0054

Time = 0.00541

Time = 0.00542

Time = 0.00543

Time = 0.00544

Time = 0.00545

Time = 0.00546

Time = 0.00547

Time = 0.00548

Time = 0.00549

Time = 0.0055

Time = 0.00551

Time = 0.00552

Time = 0.00553

Time = 0.00554

Time = 0.00555

Time = 0.00556

Time = 0.00557

Time = 0.00558

Time = 0.00559

Time = 0.0056

Time = 0.00561

Time = 0.00562

Time = 0.00563

Time = 0.00564

Time = 0.00565

Time = 0.00566

Time = 0.00567

Time = 0.00568

Time = 0.00569

Time = 0.0057

Time = 0.00571

Time = 0.00572

Time = 0.00573

Time = 0.00574

Time = 0.00575

Time = 0.00576

Time = 0.00577

Time = 0.00578

Time = 0.00579

Time = 0.0058

Time = 0.00581

Time = 0.00582

Time = 0.00583

Time = 0.00584

Time = 0.00585

Time = 0.00586

Time = 0.00587

Time = 0.00588

Time = 0.00589

Time = 0.0059

Time = 0.00591

Time = 0.00592

Time = 0.00593

Time = 0.00594

Time = 0.00595

Time = 0.00596

Time = 0.00597

Time = 0.00598

Time = 0.00599

Time = 0.006

Time = 0.00601

Time = 0.00602

Time = 0.00603

Time = 0.00604

Time = 0.00605

Time = 0.00606

Time = 0.00607

Time = 0.00608

Time = 0.00609

Time = 0.0061

Time = 0.00611

Time = 0.00612

Time = 0.00613

Time = 0.00614

Time = 0.00615

Time = 0.00616

Time = 0.00617

Time = 0.00618

Time = 0.00619

Time = 0.0062

Time = 0.00621

Time = 0.00622

Time = 0.00623

Time = 0.00624

Time = 0.00625

Time = 0.00626

Time = 0.00627

Time = 0.00628

Time = 0.00629

Time = 0.0063

Time = 0.00631

Time = 0.00632

Time = 0.00633

Time = 0.00634

Time = 0.00635

Time = 0.00636

Time = 0.00637

Time = 0.00638

Time = 0.00639

Time = 0.0064

Time = 0.00641

Time = 0.00642

Time = 0.00643

Time = 0.00644

Time = 0.00645

Time = 0.00646

Time = 0.00647

Time = 0.00648

Time = 0.00649

Time = 0.0065

Time = 0.00651

Time = 0.00652

Time = 0.00653

Time = 0.00654

Time = 0.00655

Time = 0.00656

Time = 0.00657

Time = 0.00658

Time = 0.00659

Time = 0.0066

Time = 0.00661

Time = 0.00662

Time = 0.00663

Time = 0.00664

Time = 0.00665

Time = 0.00666

Time = 0.00667

Time = 0.00668

Time = 0.00669

Time = 0.0067

Time = 0.00671

Time = 0.00672

Time = 0.00673

Time = 0.00674

Time = 0.00675

Time = 0.00676

Time = 0.00677

Time = 0.00678

Time = 0.00679

Time = 0.0068

Time = 0.00681

Time = 0.00682

Time = 0.00683

Time = 0.00684

Time = 0.00685

Time = 0.00686

Time = 0.00687

Time = 0.00688

Time = 0.00689

Time = 0.0069

Time = 0.00691

Time = 0.00692

Time = 0.00693

Time = 0.00694

Time = 0.00695

Time = 0.00696

Time = 0.00697

Time = 0.00698

Time = 0.00699

Time = 0.007

Time = 0.00701

Time = 0.00702

Time = 0.00703

Time = 0.00704

Time = 0.00705

Time = 0.00706

Time = 0.00707

Time = 0.00708

Time = 0.00709

Time = 0.0071

Time = 0.00711

Time = 0.00712

Time = 0.00713

Time = 0.00714

Time = 0.00715

Time = 0.00716

Time = 0.00717

Time = 0.00718

Time = 0.00719

Time = 0.0072

Time = 0.00721

Time = 0.00722

Time = 0.00723

Time = 0.00724

Time = 0.00725

Time = 0.00726

Time = 0.00727

Time = 0.00728

Time = 0.00729

Time = 0.0073

Time = 0.00731

Time = 0.00732

Time = 0.00733

Time = 0.00734

Time = 0.00735

Time = 0.00736

Time = 0.00737

Time = 0.00738

Time = 0.00739

Time = 0.0074

Time = 0.00741

Time = 0.00742

Time = 0.00743

Time = 0.00744

Time = 0.00745

Time = 0.00746

Time = 0.00747

Time = 0.00748

Time = 0.00749

Time = 0.0075

Time = 0.00751

Time = 0.00752

Time = 0.00753

Time = 0.00754

Time = 0.00755

Time = 0.00756

Time = 0.00757

Time = 0.00758

Time = 0.00759

Time = 0.0076

Time = 0.00761

Time = 0.00762

Time = 0.00763

Time = 0.00764

Time = 0.00765

Time = 0.00766

Time = 0.00767

Time = 0.00768

Time = 0.00769

Time = 0.0077

Time = 0.00771

Time = 0.00772

Time = 0.00773

Time = 0.00774

Time = 0.00775

Time = 0.00776

Time = 0.00777

Time = 0.00778

Time = 0.00779

Time = 0.0078

Time = 0.00781

Time = 0.00782

Time = 0.00783

Time = 0.00784

Time = 0.00785

Time = 0.00786

Time = 0.00787

Time = 0.00788

Time = 0.00789

Time = 0.0079

Time = 0.00791

Time = 0.00792

Time = 0.00793

Time = 0.00794

Time = 0.00795

Time = 0.00796

Time = 0.00797

Time = 0.00798

Time = 0.00799

Time = 0.008

Time = 0.00801

Time = 0.00802

Time = 0.00803

Time = 0.00804

Time = 0.00805

Time = 0.00806

Time = 0.00807

Time = 0.00808

Time = 0.00809

Time = 0.0081

Time = 0.00811

Time = 0.00812

Time = 0.00813

Time = 0.00814

Time = 0.00815

Time = 0.00816

Time = 0.00817

Time = 0.00818

Time = 0.00819

Time = 0.0082

Time = 0.00821

Time = 0.00822

Time = 0.00823

Time = 0.00824

Time = 0.00825

Time = 0.00826

Time = 0.00827

Time = 0.00828

Time = 0.00829

Time = 0.0083

Time = 0.00831

Time = 0.00832

Time = 0.00833

Time = 0.00834

Time = 0.00835

Time = 0.00836

Time = 0.00837

Time = 0.00838

Time = 0.00839

Time = 0.0084

Time = 0.00841

Time = 0.00842

Time = 0.00843

Time = 0.00844

Time = 0.00845

Time = 0.00846

Time = 0.00847

Time = 0.00848

Time = 0.00849

Time = 0.0085

Time = 0.00851

Time = 0.00852

Time = 0.00853

Time = 0.00854

Time = 0.00855

Time = 0.00856

Time = 0.00857

Time = 0.00858

Time = 0.00859

Time = 0.0086

Time = 0.00861

Time = 0.00862

Time = 0.00863

Time = 0.00864

Time = 0.00865

Time = 0.00866

Time = 0.00867

Time = 0.00868

Time = 0.00869

Time = 0.0087

Time = 0.00871

Time = 0.00872

Time = 0.00873

Time = 0.00874

Time = 0.00875

Time = 0.00876

Time = 0.00877

Time = 0.00878

Time = 0.00879

Time = 0.0088

Time = 0.00881

Time = 0.00882

Time = 0.00883

Time = 0.00884

Time = 0.00885

Time = 0.00886

Time = 0.00887

Time = 0.00888

Time = 0.00889

Time = 0.0089

Time = 0.00891

Time = 0.00892

Time = 0.00893

Time = 0.00894

Time = 0.00895

Time = 0.00896

Time = 0.00897

Time = 0.00898

Time = 0.00899

Time = 0.009

Time = 0.00901

Time = 0.00902

Time = 0.00903

Time = 0.00904

Time = 0.00905

Time = 0.00906

Time = 0.00907

Time = 0.00908

Time = 0.00909

Time = 0.0091

Time = 0.00911

Time = 0.00912

Time = 0.00913

Time = 0.00914

Time = 0.00915

Time = 0.00916

Time = 0.00917

Time = 0.00918

Time = 0.00919

Time = 0.0092

Time = 0.00921

Time = 0.00922

Time = 0.00923

Time = 0.00924

Time = 0.00925

Time = 0.00926

Time = 0.00927

Time = 0.00928

Time = 0.00929

Time = 0.0093

Time = 0.00931

Time = 0.00932

Time = 0.00933

Time = 0.00934

Time = 0.00935

Time = 0.00936

Time = 0.00937

Time = 0.00938

Time = 0.00939

Time = 0.0094

Time = 0.00941

Time = 0.00942

Time = 0.00943

Time = 0.00944

Time = 0.00945

Time = 0.00946

Time = 0.00947

Time = 0.00948

Time = 0.00949

Time = 0.0095

Time = 0.00951

Time = 0.00952

Time = 0.00953

Time = 0.00954

Time = 0.00955

Time = 0.00956

Time = 0.00957

Time = 0.00958

Time = 0.00959

Time = 0.0096

Time = 0.00961

Time = 0.00962

Time = 0.00963

Time = 0.00964

Time = 0.00965

Time = 0.00966

Time = 0.00967

Time = 0.00968

Time = 0.00969

Time = 0.0097

Time = 0.00971

Time = 0.00972

Time = 0.00973

Time = 0.00974

Time = 0.00975

Time = 0.00976

Time = 0.00977

Time = 0.00978

Time = 0.00979

Time = 0.0098

Time = 0.00981

Time = 0.00982

Time = 0.00983

Time = 0.00984

Time = 0.00985

Time = 0.00986

Time = 0.00987

Time = 0.00988

Time = 0.00989

Time = 0.0099

Time = 0.00991

Time = 0.00992

Time = 0.00993

Time = 0.00994

Time = 0.00995

Time = 0.00996

Time = 0.00997

Time = 0.00998

Time = 0.00999

Time = 0.01

Time = 0.01001

Time = 0.01002

Time = 0.01003

Time = 0.01004

Time = 0.01005

Time = 0.01006

Time = 0.01007

Time = 0.01008

Time = 0.01009

Time = 0.0101

Time = 0.01011

Time = 0.01012

Time = 0.01013

Time = 0.01014

Time = 0.01015

Time = 0.01016

Time = 0.01017

Time = 0.01018

Time = 0.01019

Time = 0.0102

Time = 0.01021

Time = 0.01022

Time = 0.01023

Time = 0.01024

Time = 0.01025

Time = 0.01026

Time = 0.01027

Time = 0.01028

Time = 0.01029

Time = 0.0103

Time = 0.01031

Time = 0.01032

Time = 0.01033

Time = 0.01034

Time = 0.01035

Time = 0.01036

Time = 0.01037

Time = 0.01038

Time = 0.01039

Time = 0.0104

Time = 0.01041

Time = 0.01042

Time = 0.01043

Time = 0.01044

Time = 0.01045

Time = 0.01046

Time = 0.01047

Time = 0.01048

Time = 0.01049

Time = 0.0105

Time = 0.01051

Time = 0.01052

Time = 0.01053

Time = 0.01054

Time = 0.01055

Time = 0.01056

Time = 0.01057

Time = 0.01058

Time = 0.01059

Time = 0.0106

Time = 0.01061

Time = 0.01062

Time = 0.01063

Time = 0.01064

Time = 0.01065

Time = 0.01066

Time = 0.01067

Time = 0.01068

Time = 0.01069

Time = 0.0107

Time = 0.01071

Time = 0.01072

Time = 0.01073

Time = 0.01074

Time = 0.01075

Time = 0.01076

Time = 0.01077

Time = 0.01078

Time = 0.01079

Time = 0.0108

Time = 0.01081

Time = 0.01082

Time = 0.01083

Time = 0.01084

Time = 0.01085

Time = 0.01086

Time = 0.01087

Time = 0.01088

Time = 0.01089

Time = 0.0109

Time = 0.01091

Time = 0.01092

Time = 0.01093

Time = 0.01094

Time = 0.01095

Time = 0.01096

Time = 0.01097

Time = 0.01098

Time = 0.01099

Time = 0.011

Time = 0.01101

Time = 0.01102

Time = 0.01103

Time = 0.01104

Time = 0.01105

Time = 0.01106

Time = 0.01107

Time = 0.01108

Time = 0.01109

Time = 0.0111

Time = 0.01111

Time = 0.01112

Time = 0.01113

Time = 0.01114

Time = 0.01115

Time = 0.01116

Time = 0.01117

Time = 0.01118

Time = 0.01119

Time = 0.0112

Time = 0.01121

Time = 0.01122

Time = 0.01123

Time = 0.01124

Time = 0.01125

Time = 0.01126

Time = 0.01127

Time = 0.01128

Time = 0.01129

Time = 0.0113

Time = 0.01131

Time = 0.01132

Time = 0.01133

Time = 0.01134

Time = 0.01135

Time = 0.01136

Time = 0.01137

Time = 0.01138

Time = 0.01139

Time = 0.0114

Time = 0.01141

Time = 0.01142

Time = 0.01143

Time = 0.01144

Time = 0.01145

Time = 0.01146

Time = 0.01147

Time = 0.01148

Time = 0.01149

Time = 0.0115

Time = 0.01151

Time = 0.01152

Time = 0.01153

Time = 0.01154

Time = 0.01155

Time = 0.01156

Time = 0.01157

Time = 0.01158

Time = 0.01159

Time = 0.0116

Time = 0.01161

Time = 0.01162

Time = 0.01163

Time = 0.01164

Time = 0.01165

Time = 0.01166

Time = 0.01167

Time = 0.01168

Time = 0.01169

Time = 0.0117

Time = 0.01171

Time = 0.01172

Time = 0.01173

Time = 0.01174

Time = 0.01175

Time = 0.01176

Time = 0.01177

Time = 0.01178

Time = 0.01179

Time = 0.0118

Time = 0.01181

Time = 0.01182

Time = 0.01183

Time = 0.01184

Time = 0.01185

Time = 0.01186

Time = 0.01187

Time = 0.01188

Time = 0.01189

Time = 0.0119

Time = 0.01191

Time = 0.01192

Time = 0.01193

Time = 0.01194

Time = 0.01195

Time = 0.01196

Time = 0.01197

Time = 0.01198

Time = 0.01199

Time = 0.012

Time = 0.01201

Time = 0.01202

Time = 0.01203

Time = 0.01204

Time = 0.01205

Time = 0.01206

Time = 0.01207

Time = 0.01208

Time = 0.01209

Time = 0.0121

Time = 0.01211

Time = 0.01212

Time = 0.01213

Time = 0.01214

Time = 0.01215

Time = 0.01216

Time = 0.01217

Time = 0.01218

Time = 0.01219

Time = 0.0122

Time = 0.01221

Time = 0.01222

Time = 0.01223

Time = 0.01224

Time = 0.01225

Time = 0.01226

Time = 0.01227

Time = 0.01228

Time = 0.01229

Time = 0.0123

Time = 0.01231

Time = 0.01232

Time = 0.01233

Time = 0.01234

Time = 0.01235

Time = 0.01236

Time = 0.01237

Time = 0.01238

Time = 0.01239

Time = 0.0124

Time = 0.01241

Time = 0.01242

Time = 0.01243

Time = 0.01244

Time = 0.01245

Time = 0.01246

Time = 0.01247

Time = 0.01248

Time = 0.01249

Time = 0.0125

Time = 0.01251

Time = 0.01252

Time = 0.01253

Time = 0.01254

Time = 0.01255

Time = 0.01256

Time = 0.01257

Time = 0.01258

Time = 0.01259

Time = 0.0126

Time = 0.01261

Time = 0.01262

Time = 0.01263

Time = 0.01264

Time = 0.01265

Time = 0.01266

Time = 0.01267

Time = 0.01268

Time = 0.01269

Time = 0.0127

Time = 0.01271

Time = 0.01272

Time = 0.01273

Time = 0.01274

Time = 0.01275

Time = 0.01276

Time = 0.01277

Time = 0.01278

Time = 0.01279

Time = 0.0128

Time = 0.01281

Time = 0.01282

Time = 0.01283

Time = 0.01284

Time = 0.01285

Time = 0.01286

Time = 0.01287

Time = 0.01288

Time = 0.01289

Time = 0.0129

Time = 0.01291

Time = 0.01292

Time = 0.01293

Time = 0.01294

Time = 0.01295

Time = 0.01296

Time = 0.01297

Time = 0.01298

Time = 0.01299

Time = 0.013

Time = 0.01301

Time = 0.01302

Time = 0.01303

Time = 0.01304

Time = 0.01305

Time = 0.01306

Time = 0.01307

Time = 0.01308

Time = 0.01309

Time = 0.0131

Time = 0.01311

Time = 0.01312

Time = 0.01313

Time = 0.01314

Time = 0.01315

Time = 0.01316

Time = 0.01317

Time = 0.01318

Time = 0.01319

Time = 0.0132

Time = 0.01321

Time = 0.01322

Time = 0.01323

Time = 0.01324

Time = 0.01325

Time = 0.01326

Time = 0.01327

Time = 0.01328

Time = 0.01329

Time = 0.0133

Time = 0.01331

Time = 0.01332

Time = 0.01333

Time = 0.01334

Time = 0.01335

Time = 0.01336

Time = 0.01337

Time = 0.01338

Time = 0.01339

Time = 0.0134

Time = 0.01341

Time = 0.01342

Time = 0.01343

Time = 0.01344

Time = 0.01345

Time = 0.01346

Time = 0.01347

Time = 0.01348

Time = 0.01349

Time = 0.0135

Time = 0.01351

Time = 0.01352

Time = 0.01353

Time = 0.01354

Time = 0.01355

Time = 0.01356

Time = 0.01357

Time = 0.01358

Time = 0.01359

Time = 0.0136

Time = 0.01361

Time = 0.01362

Time = 0.01363

Time = 0.01364

Time = 0.01365

Time = 0.01366

Time = 0.01367

Time = 0.01368

Time = 0.01369

Time = 0.0137

Time = 0.01371

Time = 0.01372

Time = 0.01373

Time = 0.01374

Time = 0.01375

Time = 0.01376

Time = 0.01377

Time = 0.01378

Time = 0.01379

Time = 0.0138

Time = 0.01381

Time = 0.01382

Time = 0.01383

Time = 0.01384

Time = 0.01385

Time = 0.01386

Time = 0.01387

Time = 0.01388

Time = 0.01389

Time = 0.0139

Time = 0.01391

Time = 0.01392

Time = 0.01393

Time = 0.01394

Time = 0.01395

Time = 0.01396

Time = 0.01397

Time = 0.01398

Time = 0.01399

Time = 0.014

Time = 0.01401

Time = 0.01402

Time = 0.01403

Time = 0.01404

Time = 0.01405

Time = 0.01406

Time = 0.01407

Time = 0.01408

Time = 0.01409

Time = 0.0141

Time = 0.01411

Time = 0.01412

Time = 0.01413

Time = 0.01414

Time = 0.01415

Time = 0.01416

Time = 0.01417

Time = 0.01418

Time = 0.01419

Time = 0.0142

Time = 0.01421

Time = 0.01422

Time = 0.01423

Time = 0.01424

Time = 0.01425

Time = 0.01426

Time = 0.01427

Time = 0.01428

Time = 0.01429

Time = 0.0143

Time = 0.01431

Time = 0.01432

Time = 0.01433

Time = 0.01434

Time = 0.01435

Time = 0.01436

Time = 0.01437

Time = 0.01438

Time = 0.01439

Time = 0.0144

Time = 0.01441

Time = 0.01442

Time = 0.01443

Time = 0.01444

Time = 0.01445

Time = 0.01446

Time = 0.01447

Time = 0.01448

Time = 0.01449

Time = 0.0145

Time = 0.01451

Time = 0.01452

Time = 0.01453

Time = 0.01454

Time = 0.01455

Time = 0.01456

Time = 0.01457

Time = 0.01458

Time = 0.01459

Time = 0.0146

Time = 0.01461

Time = 0.01462

Time = 0.01463

Time = 0.01464

Time = 0.01465

Time = 0.01466

Time = 0.01467

Time = 0.01468

Time = 0.01469

Time = 0.0147

Time = 0.01471

Time = 0.01472

Time = 0.01473

Time = 0.01474

Time = 0.01475

Time = 0.01476

Time = 0.01477

Time = 0.01478

Time = 0.01479

Time = 0.0148

Time = 0.01481

Time = 0.01482

Time = 0.01483

Time = 0.01484

Time = 0.01485

Time = 0.01486

Time = 0.01487

Time = 0.01488

Time = 0.01489

Time = 0.0149

Time = 0.01491

Time = 0.01492

Time = 0.01493

Time = 0.01494

Time = 0.01495

Time = 0.01496

Time = 0.01497

Time = 0.01498

Time = 0.01499

Time = 0.015

Time = 0.01501

Time = 0.01502

Time = 0.01503

Time = 0.01504

Time = 0.01505

Time = 0.01506

Time = 0.01507

Time = 0.01508

Time = 0.01509

Time = 0.0151

Time = 0.01511

Time = 0.01512

Time = 0.01513

Time = 0.01514

Time = 0.01515

Time = 0.01516

Time = 0.01517

Time = 0.01518

Time = 0.01519

Time = 0.0152

Time = 0.01521

Time = 0.01522

Time = 0.01523

Time = 0.01524

Time = 0.01525

Time = 0.01526

Time = 0.01527

Time = 0.01528

Time = 0.01529

Time = 0.0153

Time = 0.01531

Time = 0.01532

Time = 0.01533

Time = 0.01534

Time = 0.01535

Time = 0.01536

Time = 0.01537

Time = 0.01538

Time = 0.01539

Time = 0.0154

Time = 0.01541

Time = 0.01542

Time = 0.01543

Time = 0.01544

Time = 0.01545

Time = 0.01546

Time = 0.01547

Time = 0.01548

Time = 0.01549

Time = 0.0155

Time = 0.01551

Time = 0.01552

Time = 0.01553

Time = 0.01554

Time = 0.01555

Time = 0.01556

Time = 0.01557

Time = 0.01558

Time = 0.01559

Time = 0.0156

Time = 0.01561

Time = 0.01562

Time = 0.01563

Time = 0.01564

Time = 0.01565

Time = 0.01566

Time = 0.01567

Time = 0.01568

Time = 0.01569

Time = 0.0157

Time = 0.01571

Time = 0.01572

Time = 0.01573

Time = 0.01574

Time = 0.01575

Time = 0.01576

Time = 0.01577

Time = 0.01578

Time = 0.01579

Time = 0.0158

Time = 0.01581

Time = 0.01582

Time = 0.01583

Time = 0.01584

Time = 0.01585

Time = 0.01586

Time = 0.01587

Time = 0.01588

Time = 0.01589

Time = 0.0159

Time = 0.01591

Time = 0.01592

Time = 0.01593

Time = 0.01594

Time = 0.01595

Time = 0.01596

Time = 0.01597

Time = 0.01598

Time = 0.01599

Time = 0.016

Time = 0.01601

Time = 0.01602

Time = 0.01603

Time = 0.01604

Time = 0.01605

Time = 0.01606

Time = 0.01607

Time = 0.01608

Time = 0.01609

Time = 0.0161

Time = 0.01611

Time = 0.01612

Time = 0.01613

Time = 0.01614

Time = 0.01615

Time = 0.01616

Time = 0.01617

Time = 0.01618

Time = 0.01619

Time = 0.0162

Time = 0.01621

Time = 0.01622

Time = 0.01623

Time = 0.01624

Time = 0.01625

Time = 0.01626

Time = 0.01627

Time = 0.01628

Time = 0.01629

Time = 0.0163

Time = 0.01631

Time = 0.01632

Time = 0.01633

Time = 0.01634

Time = 0.01635

Time = 0.01636

Time = 0.01637

Time = 0.01638

Time = 0.01639

Time = 0.0164

Time = 0.01641

Time = 0.01642

Time = 0.01643

Time = 0.01644

Time = 0.01645

Time = 0.01646

Time = 0.01647

Time = 0.01648

Time = 0.01649

Time = 0.0165

Time = 0.01651

Time = 0.01652

Time = 0.01653

Time = 0.01654

Time = 0.01655

Time = 0.01656

Time = 0.01657

Time = 0.01658

Time = 0.01659

Time = 0.0166

Time = 0.01661

Time = 0.01662

Time = 0.01663

Time = 0.01664

Time = 0.01665

Time = 0.01666

Time = 0.01667

Time = 0.01668

Time = 0.01669

Time = 0.0167

Time = 0.01671

Time = 0.01672

Time = 0.01673

Time = 0.01674

Time = 0.01675

Time = 0.01676

Time = 0.01677

Time = 0.01678

Time = 0.01679

Time = 0.0168

Time = 0.01681

Time = 0.01682

Time = 0.01683

Time = 0.01684

Time = 0.01685

Time = 0.01686

Time = 0.01687

Time = 0.01688

Time = 0.01689

Time = 0.0169

Time = 0.01691

Time = 0.01692

Time = 0.01693

Time = 0.01694

Time = 0.01695

Time = 0.01696

Time = 0.01697

Time = 0.01698

Time = 0.01699

Time = 0.017

Time = 0.01701

Time = 0.01702

Time = 0.01703

Time = 0.01704

Time = 0.01705

Time = 0.01706

Time = 0.01707

Time = 0.01708

Time = 0.01709

Time = 0.0171

Time = 0.01711

Time = 0.01712

Time = 0.01713

Time = 0.01714

Time = 0.01715

Time = 0.01716

Time = 0.01717

Time = 0.01718

Time = 0.01719

Time = 0.0172

Time = 0.01721

Time = 0.01722

Time = 0.01723

Time = 0.01724

Time = 0.01725

Time = 0.01726

Time = 0.01727

Time = 0.01728

Time = 0.01729

Time = 0.0173

Time = 0.01731

Time = 0.01732

Time = 0.01733

Time = 0.01734

Time = 0.01735

Time = 0.01736

Time = 0.01737

Time = 0.01738

Time = 0.01739

Time = 0.0174

Time = 0.01741

Time = 0.01742

Time = 0.01743

Time = 0.01744

Time = 0.01745

Time = 0.01746

Time = 0.01747

Time = 0.01748

Time = 0.01749

Time = 0.0175

Time = 0.01751

Time = 0.01752

Time = 0.01753

Time = 0.01754

Time = 0.01755

Time = 0.01756

Time = 0.01757

Time = 0.01758

Time = 0.01759

Time = 0.0176

Time = 0.01761

Time = 0.01762

Time = 0.01763

Time = 0.01764

Time = 0.01765

Time = 0.01766

Time = 0.01767

Time = 0.01768

Time = 0.01769

Time = 0.0177

Time = 0.01771

Time = 0.01772

Time = 0.01773

Time = 0.01774

Time = 0.01775

Time = 0.01776

Time = 0.01777

Time = 0.01778

Time = 0.01779

Time = 0.0178

Time = 0.01781

Time = 0.01782

Time = 0.01783

Time = 0.01784

Time = 0.01785

Time = 0.01786

Time = 0.01787

Time = 0.01788

Time = 0.01789

Time = 0.0179

Time = 0.01791

Time = 0.01792

Time = 0.01793

Time = 0.01794

Time = 0.01795

Time = 0.01796

Time = 0.01797

Time = 0.01798

Time = 0.01799

Time = 0.018

Time = 0.01801

Time = 0.01802

Time = 0.01803

Time = 0.01804

Time = 0.01805

Time = 0.01806

Time = 0.01807

Time = 0.01808

Time = 0.01809

Time = 0.0181

Time = 0.01811

Time = 0.01812

Time = 0.01813

Time = 0.01814

Time = 0.01815

Time = 0.01816

Time = 0.01817

Time = 0.01818

Time = 0.01819

Time = 0.0182

Time = 0.01821

Time = 0.01822

Time = 0.01823

Time = 0.01824

Time = 0.01825

Time = 0.01826

Time = 0.01827

Time = 0.01828

Time = 0.01829

Time = 0.0183

Time = 0.01831

Time = 0.01832

Time = 0.01833

Time = 0.01834

Time = 0.01835

Time = 0.01836

Time = 0.01837

Time = 0.01838

Time = 0.01839

Time = 0.0184

Time = 0.01841

Time = 0.01842

Time = 0.01843

Time = 0.01844

Time = 0.01845

Time = 0.01846

Time = 0.01847

Time = 0.01848

Time = 0.01849

Time = 0.0185

Time = 0.01851

Time = 0.01852

Time = 0.01853

Time = 0.01854

Time = 0.01855

Time = 0.01856

Time = 0.01857

Time = 0.01858

Time = 0.01859

Time = 0.0186

Time = 0.01861

Time = 0.01862

Time = 0.01863

Time = 0.01864

Time = 0.01865

Time = 0.01866

Time = 0.01867

Time = 0.01868

Time = 0.01869

Time = 0.0187

Time = 0.01871

Time = 0.01872

Time = 0.01873

Time = 0.01874

Time = 0.01875

Time = 0.01876

Time = 0.01877

Time = 0.01878

Time = 0.01879

Time = 0.0188

Time = 0.01881

Time = 0.01882

Time = 0.01883

Time = 0.01884

Time = 0.01885

Time = 0.01886

Time = 0.01887

Time = 0.01888

Time = 0.01889

Time = 0.0189

Time = 0.01891

Time = 0.01892

Time = 0.01893

Time = 0.01894

Time = 0.01895

Time = 0.01896

Time = 0.01897

Time = 0.01898

Time = 0.01899

Time = 0.019

Time = 0.01901

Time = 0.01902

Time = 0.01903

Time = 0.01904

Time = 0.01905

Time = 0.01906

Time = 0.01907

Time = 0.01908

Time = 0.01909

Time = 0.0191

Time = 0.01911

Time = 0.01912

Time = 0.01913

Time = 0.01914

Time = 0.01915

Time = 0.01916

Time = 0.01917

Time = 0.01918

Time = 0.01919

Time = 0.0192

Time = 0.01921

Time = 0.01922

Time = 0.01923

Time = 0.01924

Time = 0.01925

Time = 0.01926

Time = 0.01927

Time = 0.01928

Time = 0.01929

Time = 0.0193

Time = 0.01931

Time = 0.01932

Time = 0.01933

Time = 0.01934

Time = 0.01935

Time = 0.01936

Time = 0.01937

Time = 0.01938

Time = 0.01939

Time = 0.0194

Time = 0.01941

Time = 0.01942

Time = 0.01943

Time = 0.01944

Time = 0.01945

Time = 0.01946

Time = 0.01947

Time = 0.01948

Time = 0.01949

Time = 0.0195

Time = 0.01951

Time = 0.01952

Time = 0.01953

Time = 0.01954

Time = 0.01955

Time = 0.01956

Time = 0.01957

Time = 0.01958

Time = 0.01959

Time = 0.0196

Time = 0.01961

Time = 0.01962

Time = 0.01963

Time = 0.01964

Time = 0.01965

Time = 0.01966

Time = 0.01967

Time = 0.01968

Time = 0.01969

Time = 0.0197

Time = 0.01971

Time = 0.01972

Time = 0.01973

Time = 0.01974

Time = 0.01975

Time = 0.01976

Time = 0.01977

Time = 0.01978

Time = 0.01979

Time = 0.0198

Time = 0.01981

Time = 0.01982

Time = 0.01983

Time = 0.01984

Time = 0.01985

Time = 0.01986

Time = 0.01987

Time = 0.01988

Time = 0.01989

Time = 0.0199

Time = 0.01991

Time = 0.01992

Time = 0.01993

Time = 0.01994

Time = 0.01995

Time = 0.01996

Time = 0.01997

Time = 0.01998

Time = 0.01999

Time = 0.02

Time = 0.02001

Time = 0.02002

Time = 0.02003

Time = 0.02004

Time = 0.02005

Time = 0.02006

Time = 0.02007

Time = 0.02008

Time = 0.02009

Time = 0.0201

Time = 0.02011

Time = 0.02012

Time = 0.02013

Time = 0.02014

Time = 0.02015

Time = 0.02016

Time = 0.02017

Time = 0.02018

Time = 0.02019

Time = 0.0202

Time = 0.02021

Time = 0.02022

Time = 0.02023

Time = 0.02024

Time = 0.02025

Time = 0.02026

Time = 0.02027

Time = 0.02028

Time = 0.02029

Time = 0.0203

Time = 0.02031

Time = 0.02032

Time = 0.02033

Time = 0.02034

Time = 0.02035

Time = 0.02036

Time = 0.02037

Time = 0.02038

Time = 0.02039

Time = 0.0204

Time = 0.02041

Time = 0.02042

Time = 0.02043

Time = 0.02044

Time = 0.02045

Time = 0.02046

Time = 0.02047

Time = 0.02048

Time = 0.02049

Time = 0.0205

Time = 0.02051

Time = 0.02052

Time = 0.02053

Time = 0.02054

Time = 0.02055

Time = 0.02056

Time = 0.02057

Time = 0.02058

Time = 0.02059

Time = 0.0206

Time = 0.02061

Time = 0.02062

Time = 0.02063

Time = 0.02064

Time = 0.02065

Time = 0.02066

Time = 0.02067

Time = 0.02068

Time = 0.02069

Time = 0.0207

Time = 0.02071

Time = 0.02072

Time = 0.02073

Time = 0.02074

Time = 0.02075

Time = 0.02076

Time = 0.02077

Time = 0.02078

Time = 0.02079

Time = 0.0208

Time = 0.02081

Time = 0.02082

Time = 0.02083

Time = 0.02084

Time = 0.02085

Time = 0.02086

Time = 0.02087

Time = 0.02088

Time = 0.02089

Time = 0.0209

Time = 0.02091

Time = 0.02092

Time = 0.02093

Time = 0.02094

Time = 0.02095

Time = 0.02096

Time = 0.02097

Time = 0.02098

Time = 0.02099

Time = 0.021

Time = 0.02101

Time = 0.02102

Time = 0.02103

Time = 0.02104

Time = 0.02105

Time = 0.02106

Time = 0.02107

Time = 0.02108

Time = 0.02109

Time = 0.0211

Time = 0.02111

Time = 0.02112

Time = 0.02113

Time = 0.02114

Time = 0.02115

Time = 0.02116

Time = 0.02117

Time = 0.02118

Time = 0.02119

Time = 0.0212

Time = 0.02121

Time = 0.02122

Time = 0.02123

Time = 0.02124

Time = 0.02125

Time = 0.02126

Time = 0.02127

Time = 0.02128

Time = 0.02129

Time = 0.0213

Time = 0.02131

Time = 0.02132

Time = 0.02133

Time = 0.02134

Time = 0.02135

Time = 0.02136

Time = 0.02137

Time = 0.02138

Time = 0.02139

Time = 0.0214

Time = 0.02141

Time = 0.02142

Time = 0.02143

Time = 0.02144

Time = 0.02145

Time = 0.02146

Time = 0.02147

Time = 0.02148

Time = 0.02149

Time = 0.0215

Time = 0.02151

Time = 0.02152

Time = 0.02153

Time = 0.02154

Time = 0.02155

Time = 0.02156

Time = 0.02157

Time = 0.02158

Time = 0.02159

Time = 0.0216

Time = 0.02161

Time = 0.02162

Time = 0.02163

Time = 0.02164

Time = 0.02165

Time = 0.02166

Time = 0.02167

Time = 0.02168

Time = 0.02169

Time = 0.0217

Time = 0.02171

Time = 0.02172

Time = 0.02173

Time = 0.02174

Time = 0.02175

Time = 0.02176

Time = 0.02177

Time = 0.02178

Time = 0.02179

Time = 0.0218

Time = 0.02181

Time = 0.02182

Time = 0.02183

Time = 0.02184

Time = 0.02185

Time = 0.02186

Time = 0.02187

Time = 0.02188

Time = 0.02189

Time = 0.0219

Time = 0.02191

Time = 0.02192

Time = 0.02193

Time = 0.02194

Time = 0.02195

Time = 0.02196

Time = 0.02197

Time = 0.02198

Time = 0.02199

Time = 0.022

Time = 0.02201

Time = 0.02202

Time = 0.02203

Time = 0.02204

Time = 0.02205

Time = 0.02206

Time = 0.02207

Time = 0.02208

Time = 0.02209

Time = 0.0221

Time = 0.02211

Time = 0.02212

Time = 0.02213

Time = 0.02214

Time = 0.02215

Time = 0.02216

Time = 0.02217

Time = 0.02218

Time = 0.02219

Time = 0.0222

Time = 0.02221

Time = 0.02222

Time = 0.02223

Time = 0.02224

Time = 0.02225

Time = 0.02226

Time = 0.02227

Time = 0.02228

Time = 0.02229

Time = 0.0223

Time = 0.02231

Time = 0.02232

Time = 0.02233

Time = 0.02234

Time = 0.02235

Time = 0.02236

Time = 0.02237

Time = 0.02238

Time = 0.02239

Time = 0.0224

Time = 0.02241

Time = 0.02242

Time = 0.02243

Time = 0.02244

Time = 0.02245

Time = 0.02246

Time = 0.02247

Time = 0.02248

Time = 0.02249

Time = 0.0225

Time = 0.02251

Time = 0.02252

Time = 0.02253

Time = 0.02254

Time = 0.02255

Time = 0.02256

Time = 0.02257

Time = 0.02258

Time = 0.02259

Time = 0.0226

Time = 0.02261

Time = 0.02262

Time = 0.02263

Time = 0.02264

Time = 0.02265

Time = 0.02266

Time = 0.02267

Time = 0.02268

Time = 0.02269

Time = 0.0227

Time = 0.02271

Time = 0.02272

Time = 0.02273

Time = 0.02274

Time = 0.02275

Time = 0.02276

Time = 0.02277

Time = 0.02278

Time = 0.02279

Time = 0.0228

Time = 0.02281

Time = 0.02282

Time = 0.02283

Time = 0.02284

Time = 0.02285

Time = 0.02286

Time = 0.02287

Time = 0.02288

Time = 0.02289

Time = 0.0229

Time = 0.02291

Time = 0.02292

Time = 0.02293

Time = 0.02294

Time = 0.02295

Time = 0.02296

Time = 0.02297

Time = 0.02298

Time = 0.02299

Time = 0.023

Time = 0.02301

Time = 0.02302

Time = 0.02303

Time = 0.02304

Time = 0.02305

Time = 0.02306

Time = 0.02307

Time = 0.02308

Time = 0.02309

Time = 0.0231

Time = 0.02311

Time = 0.02312

Time = 0.02313

Time = 0.02314

Time = 0.02315

Time = 0.02316

Time = 0.02317

Time = 0.02318

Time = 0.02319

Time = 0.0232

Time = 0.02321

Time = 0.02322

Time = 0.02323

Time = 0.02324

Time = 0.02325

Time = 0.02326

Time = 0.02327

Time = 0.02328

Time = 0.02329

Time = 0.0233

Time = 0.02331

Time = 0.02332

Time = 0.02333

Time = 0.02334

Time = 0.02335

Time = 0.02336

Time = 0.02337

Time = 0.02338

Time = 0.02339

Time = 0.0234

Time = 0.02341

Time = 0.02342

Time = 0.02343

Time = 0.02344

Time = 0.02345

Time = 0.02346

Time = 0.02347

Time = 0.02348

Time = 0.02349

Time = 0.0235

Time = 0.02351

Time = 0.02352

Time = 0.02353

Time = 0.02354

Time = 0.02355

Time = 0.02356

Time = 0.02357

Time = 0.02358

Time = 0.02359

Time = 0.0236

Time = 0.02361

Time = 0.02362

Time = 0.02363

Time = 0.02364

Time = 0.02365

Time = 0.02366

Time = 0.02367

Time = 0.02368

Time = 0.02369

Time = 0.0237

Time = 0.02371

Time = 0.02372

Time = 0.02373

Time = 0.02374

Time = 0.02375

Time = 0.02376

Time = 0.02377

Time = 0.02378

Time = 0.02379

Time = 0.0238

Time = 0.02381

Time = 0.02382

Time = 0.02383

Time = 0.02384

Time = 0.02385

Time = 0.02386

Time = 0.02387

Time = 0.02388

Time = 0.02389

Time = 0.0239

Time = 0.02391

Time = 0.02392

Time = 0.02393

Time = 0.02394

Time = 0.02395

Time = 0.02396

Time = 0.02397

Time = 0.02398

Time = 0.02399

Time = 0.024

Time = 0.02401

Time = 0.02402

Time = 0.02403

Time = 0.02404

Time = 0.02405

Time = 0.02406

Time = 0.02407

Time = 0.02408

Time = 0.02409

Time = 0.0241

Time = 0.02411

Time = 0.02412

Time = 0.02413

Time = 0.02414

Time = 0.02415

Time = 0.02416

Time = 0.02417

Time = 0.02418

Time = 0.02419

Time = 0.0242

Time = 0.02421

Time = 0.02422

Time = 0.02423

Time = 0.02424

Time = 0.02425

Time = 0.02426

Time = 0.02427

Time = 0.02428

Time = 0.02429

Time = 0.0243

Time = 0.02431

Time = 0.02432

Time = 0.02433

Time = 0.02434

Time = 0.02435

Time = 0.02436

Time = 0.02437

Time = 0.02438

Time = 0.02439

Time = 0.0244

Time = 0.02441

Time = 0.02442

Time = 0.02443

Time = 0.02444

Time = 0.02445

Time = 0.02446

Time = 0.02447

Time = 0.02448

Time = 0.02449

Time = 0.0245

Time = 0.02451

Time = 0.02452

Time = 0.02453

Time = 0.02454

Time = 0.02455

Time = 0.02456

Time = 0.02457

Time = 0.02458

Time = 0.02459

Time = 0.0246

Time = 0.02461

Time = 0.02462

Time = 0.02463

Time = 0.02464

Time = 0.02465

Time = 0.02466

Time = 0.02467

Time = 0.02468

Time = 0.02469

Time = 0.0247

Time = 0.02471

Time = 0.02472

Time = 0.02473

Time = 0.02474

Time = 0.02475

Time = 0.02476

Time = 0.02477

Time = 0.02478

Time = 0.02479

Time = 0.0248

Time = 0.02481

Time = 0.02482

Time = 0.02483

Time = 0.02484

Time = 0.02485

Time = 0.02486

Time = 0.02487

Time = 0.02488

Time = 0.02489

Time = 0.0249

Time = 0.02491

Time = 0.02492

Time = 0.02493

Time = 0.02494

Time = 0.02495

Time = 0.02496

Time = 0.02497

Time = 0.02498

Time = 0.02499

Time = 0.025

Time = 0.02501

Time = 0.02502

Time = 0.02503

Time = 0.02504

Time = 0.02505

Time = 0.02506

Time = 0.02507

Time = 0.02508

Time = 0.02509

Time = 0.0251

Time = 0.02511

Time = 0.02512

Time = 0.02513

Time = 0.02514

Time = 0.02515

Time = 0.02516

Time = 0.02517

Time = 0.02518

Time = 0.02519

Time = 0.0252

Time = 0.02521

Time = 0.02522

Time = 0.02523

Time = 0.02524

Time = 0.02525

Time = 0.02526

Time = 0.02527

Time = 0.02528

Time = 0.02529

Time = 0.0253

Time = 0.02531

Time = 0.02532

Time = 0.02533

Time = 0.02534

Time = 0.02535

Time = 0.02536

Time = 0.02537

Time = 0.02538

Time = 0.02539

Time = 0.0254

Time = 0.02541

Time = 0.02542

Time = 0.02543

Time = 0.02544

Time = 0.02545

Time = 0.02546

Time = 0.02547

Time = 0.02548

Time = 0.02549

Time = 0.0255

Time = 0.02551

Time = 0.02552

Time = 0.02553

Time = 0.02554

Time = 0.02555

Time = 0.02556

Time = 0.02557

Time = 0.02558

Time = 0.02559

Time = 0.0256

Time = 0.02561

Time = 0.02562

Time = 0.02563

Time = 0.02564

Time = 0.02565

Time = 0.02566

Time = 0.02567

Time = 0.02568

Time = 0.02569

Time = 0.0257

Time = 0.02571

Time = 0.02572

Time = 0.02573

Time = 0.02574

Time = 0.02575

Time = 0.02576

Time = 0.02577

Time = 0.02578

Time = 0.02579

Time = 0.0258

Time = 0.02581

Time = 0.02582

Time = 0.02583

Time = 0.02584

Time = 0.02585

Time = 0.02586

Time = 0.02587

Time = 0.02588

Time = 0.02589

Time = 0.0259

Time = 0.02591

Time = 0.02592

Time = 0.02593

Time = 0.02594

Time = 0.02595

Time = 0.02596

Time = 0.02597

Time = 0.02598

Time = 0.02599

Time = 0.026

Time = 0.02601

Time = 0.02602

Time = 0.02603

Time = 0.02604

Time = 0.02605

Time = 0.02606

Time = 0.02607

Time = 0.02608

Time = 0.02609

Time = 0.0261

Time = 0.02611

Time = 0.02612

Time = 0.02613

Time = 0.02614

Time = 0.02615

Time = 0.02616

Time = 0.02617

Time = 0.02618

Time = 0.02619

Time = 0.0262

Time = 0.02621

Time = 0.02622

Time = 0.02623

Time = 0.02624

Time = 0.02625

Time = 0.02626

Time = 0.02627

Time = 0.02628

Time = 0.02629

Time = 0.0263

Time = 0.02631

Time = 0.02632

Time = 0.02633

Time = 0.02634

Time = 0.02635

Time = 0.02636

Time = 0.02637

Time = 0.02638

Time = 0.02639

Time = 0.0264

Time = 0.02641

Time = 0.02642

Time = 0.02643

Time = 0.02644

Time = 0.02645

Time = 0.02646

Time = 0.02647

Time = 0.02648

Time = 0.02649

Time = 0.0265

Time = 0.02651

Time = 0.02652

Time = 0.02653

Time = 0.02654

Time = 0.02655

Time = 0.02656

Time = 0.02657

Time = 0.02658

Time = 0.02659

Time = 0.0266

Time = 0.02661

Time = 0.02662

Time = 0.02663

Time = 0.02664

Time = 0.02665

Time = 0.02666

Time = 0.02667

Time = 0.02668

Time = 0.02669

Time = 0.0267

Time = 0.02671

Time = 0.02672

Time = 0.02673

Time = 0.02674

Time = 0.02675

Time = 0.02676

Time = 0.02677

Time = 0.02678

Time = 0.02679

Time = 0.0268

Time = 0.02681

Time = 0.02682

Time = 0.02683

Time = 0.02684

Time = 0.02685

Time = 0.02686

Time = 0.02687

Time = 0.02688

Time = 0.02689

Time = 0.0269

Time = 0.02691

Time = 0.02692

Time = 0.02693

Time = 0.02694

Time = 0.02695

Time = 0.02696

Time = 0.02697

Time = 0.02698

Time = 0.02699

Time = 0.027

Time = 0.02701

Time = 0.02702

Time = 0.02703

Time = 0.02704

Time = 0.02705

Time = 0.02706

Time = 0.02707

Time = 0.02708

Time = 0.02709

Time = 0.0271

Time = 0.02711

Time = 0.02712

Time = 0.02713

Time = 0.02714

Time = 0.02715

Time = 0.02716

Time = 0.02717

Time = 0.02718

Time = 0.02719

Time = 0.0272

Time = 0.02721

Time = 0.02722

Time = 0.02723

Time = 0.02724

Time = 0.02725

Time = 0.02726

Time = 0.02727

Time = 0.02728

Time = 0.02729

Time = 0.0273

Time = 0.02731

Time = 0.02732

Time = 0.02733

Time = 0.02734

Time = 0.02735

Time = 0.02736

Time = 0.02737

Time = 0.02738

Time = 0.02739

Time = 0.0274

Time = 0.02741

Time = 0.02742

Time = 0.02743

Time = 0.02744

Time = 0.02745

Time = 0.02746

Time = 0.02747

Time = 0.02748

Time = 0.02749

Time = 0.0275

Time = 0.02751

Time = 0.02752

Time = 0.02753

Time = 0.02754

Time = 0.02755

Time = 0.02756

Time = 0.02757

Time = 0.02758

Time = 0.02759

Time = 0.0276

Time = 0.02761

Time = 0.02762

Time = 0.02763

Time = 0.02764

Time = 0.02765

Time = 0.02766

Time = 0.02767

Time = 0.02768

Time = 0.02769

Time = 0.0277

Time = 0.02771

Time = 0.02772

Time = 0.02773

Time = 0.02774

Time = 0.02775

Time = 0.02776

Time = 0.02777

Time = 0.02778

Time = 0.02779

Time = 0.0278

Time = 0.02781

Time = 0.02782

Time = 0.02783

Time = 0.02784

Time = 0.02785

Time = 0.02786

Time = 0.02787

Time = 0.02788

Time = 0.02789

Time = 0.0279

Time = 0.02791

Time = 0.02792

Time = 0.02793

Time = 0.02794

Time = 0.02795

Time = 0.02796

Time = 0.02797

Time = 0.02798

Time = 0.02799

Time = 0.028

Time = 0.02801

Time = 0.02802

Time = 0.02803

Time = 0.02804

Time = 0.02805

Time = 0.02806

Time = 0.02807

Time = 0.02808

Time = 0.02809

Time = 0.0281

Time = 0.02811

Time = 0.02812

Time = 0.02813

Time = 0.02814

Time = 0.02815

Time = 0.02816

Time = 0.02817

Time = 0.02818

Time = 0.02819

Time = 0.0282

Time = 0.02821

Time = 0.02822

Time = 0.02823

Time = 0.02824

Time = 0.02825

Time = 0.02826

Time = 0.02827

Time = 0.02828

Time = 0.02829

Time = 0.0283

Time = 0.02831

Time = 0.02832

Time = 0.02833

Time = 0.02834

Time = 0.02835

Time = 0.02836

Time = 0.02837

Time = 0.02838

Time = 0.02839

Time = 0.0284

Time = 0.02841

Time = 0.02842

Time = 0.02843

Time = 0.02844

Time = 0.02845

Time = 0.02846

Time = 0.02847

Time = 0.02848

Time = 0.02849

Time = 0.0285

Time = 0.02851

Time = 0.02852

Time = 0.02853

Time = 0.02854

Time = 0.02855

Time = 0.02856

Time = 0.02857

Time = 0.02858

Time = 0.02859

Time = 0.0286

Time = 0.02861

Time = 0.02862

Time = 0.02863

Time = 0.02864

Time = 0.02865

Time = 0.02866

Time = 0.02867

Time = 0.02868

Time = 0.02869

Time = 0.0287

Time = 0.02871

Time = 0.02872

Time = 0.02873

Time = 0.02874

Time = 0.02875

Time = 0.02876

Time = 0.02877

Time = 0.02878

Time = 0.02879

Time = 0.0288

Time = 0.02881

Time = 0.02882

Time = 0.02883

Time = 0.02884

Time = 0.02885

Time = 0.02886

Time = 0.02887

Time = 0.02888

Time = 0.02889

Time = 0.0289

Time = 0.02891

Time = 0.02892

Time = 0.02893

Time = 0.02894

Time = 0.02895

Time = 0.02896

Time = 0.02897

Time = 0.02898

Time = 0.02899

Time = 0.029

Time = 0.02901

Time = 0.02902

Time = 0.02903

Time = 0.02904

Time = 0.02905

Time = 0.02906

Time = 0.02907

Time = 0.02908

Time = 0.02909

Time = 0.0291

Time = 0.02911

Time = 0.02912

Time = 0.02913

Time = 0.02914

Time = 0.02915

Time = 0.02916

Time = 0.02917

Time = 0.02918

Time = 0.02919

Time = 0.0292

Time = 0.02921

Time = 0.02922

Time = 0.02923

Time = 0.02924

Time = 0.02925

Time = 0.02926

Time = 0.02927

Time = 0.02928

Time = 0.02929

Time = 0.0293

Time = 0.02931

Time = 0.02932

Time = 0.02933

Time = 0.02934

Time = 0.02935

Time = 0.02936

Time = 0.02937

Time = 0.02938

Time = 0.02939

Time = 0.0294

Time = 0.02941

Time = 0.02942

Time = 0.02943

Time = 0.02944

Time = 0.02945

Time = 0.02946

Time = 0.02947

Time = 0.02948

Time = 0.02949

Time = 0.0295

Time = 0.02951

Time = 0.02952

Time = 0.02953

Time = 0.02954

Time = 0.02955

Time = 0.02956

Time = 0.02957

Time = 0.02958

Time = 0.02959

Time = 0.0296

Time = 0.02961

Time = 0.02962

Time = 0.02963

Time = 0.02964

Time = 0.02965

Time = 0.02966

Time = 0.02967

Time = 0.02968

Time = 0.02969

Time = 0.0297

Time = 0.02971

Time = 0.02972

Time = 0.02973

Time = 0.02974

Time = 0.02975

Time = 0.02976

Time = 0.02977

Time = 0.02978

Time = 0.02979

Time = 0.0298

Time = 0.02981

Time = 0.02982

Time = 0.02983

Time = 0.02984

Time = 0.02985

Time = 0.02986

Time = 0.02987

Time = 0.02988

Time = 0.02989

Time = 0.0299

Time = 0.02991

Time = 0.02992

Time = 0.02993

Time = 0.02994

Time = 0.02995

Time = 0.02996

Time = 0.02997

Time = 0.02998

Time = 0.02999

Time = 0.03

Time = 0.03001

Time = 0.03002

Time = 0.03003

Time = 0.03004

Time = 0.03005

Time = 0.03006

Time = 0.03007

Time = 0.03008

Time = 0.03009

Time = 0.0301

Time = 0.03011

Time = 0.03012

Time = 0.03013

Time = 0.03014

Time = 0.03015

Time = 0.03016

Time = 0.03017

Time = 0.03018

Time = 0.03019

Time = 0.0302

Time = 0.03021

Time = 0.03022

Time = 0.03023

Time = 0.03024

Time = 0.03025

Time = 0.03026

Time = 0.03027

Time = 0.03028

Time = 0.03029

Time = 0.0303

Time = 0.03031

Time = 0.03032

Time = 0.03033

Time = 0.03034

Time = 0.03035

Time = 0.03036

Time = 0.03037

Time = 0.03038

Time = 0.03039

Time = 0.0304

Time = 0.03041

Time = 0.03042

Time = 0.03043

Time = 0.03044

Time = 0.03045

Time = 0.03046

Time = 0.03047

Time = 0.03048

Time = 0.03049

Time = 0.0305

Time = 0.03051

Time = 0.03052

Time = 0.03053

Time = 0.03054

Time = 0.03055

Time = 0.03056

Time = 0.03057

Time = 0.03058

Time = 0.03059

Time = 0.0306

Time = 0.03061

Time = 0.03062

Time = 0.03063

Time = 0.03064

Time = 0.03065

Time = 0.03066

Time = 0.03067

Time = 0.03068

Time = 0.03069

Time = 0.0307

Time = 0.03071

Time = 0.03072

Time = 0.03073

Time = 0.03074

Time = 0.03075

Time = 0.03076

Time = 0.03077

Time = 0.03078

Time = 0.03079

Time = 0.0308

Time = 0.03081

Time = 0.03082

Time = 0.03083

Time = 0.03084

Time = 0.03085

Time = 0.03086

Time = 0.03087

Time = 0.03088

Time = 0.03089

Time = 0.0309

Time = 0.03091

Time = 0.03092

Time = 0.03093

Time = 0.03094

Time = 0.03095

Time = 0.03096

Time = 0.03097

Time = 0.03098

Time = 0.03099

Time = 0.031

Time = 0.03101

Time = 0.03102

Time = 0.03103

Time = 0.03104

Time = 0.03105

Time = 0.03106

Time = 0.03107

Time = 0.03108

Time = 0.03109

Time = 0.0311

Time = 0.03111

Time = 0.03112

Time = 0.03113

Time = 0.03114

Time = 0.03115

Time = 0.03116

Time = 0.03117

Time = 0.03118

Time = 0.03119

Time = 0.0312

Time = 0.03121

Time = 0.03122

Time = 0.03123

Time = 0.03124

Time = 0.03125

Time = 0.03126

Time = 0.03127

Time = 0.03128

Time = 0.03129

Time = 0.0313

Time = 0.03131

Time = 0.03132

Time = 0.03133

Time = 0.03134

Time = 0.03135

Time = 0.03136

Time = 0.03137

Time = 0.03138

Time = 0.03139

Time = 0.0314

Time = 0.03141

Time = 0.03142

Time = 0.03143

Time = 0.03144

Time = 0.03145

Time = 0.03146

Time = 0.03147

Time = 0.03148

Time = 0.03149

Time = 0.0315

Time = 0.03151

Time = 0.03152

Time = 0.03153

Time = 0.03154

Time = 0.03155

Time = 0.03156

Time = 0.03157

Time = 0.03158

Time = 0.03159

Time = 0.0316

Time = 0.03161

Time = 0.03162

Time = 0.03163

Time = 0.03164

Time = 0.03165

Time = 0.03166

Time = 0.03167

Time = 0.03168

Time = 0.03169

Time = 0.0317

Time = 0.03171

Time = 0.03172

Time = 0.03173

Time = 0.03174

Time = 0.03175

Time = 0.03176

Time = 0.03177

Time = 0.03178

Time = 0.03179

Time = 0.0318

Time = 0.03181

Time = 0.03182

Time = 0.03183

Time = 0.03184

Time = 0.03185

Time = 0.03186

Time = 0.03187

Time = 0.03188

Time = 0.03189

Time = 0.0319

Time = 0.03191

Time = 0.03192

Time = 0.03193

Time = 0.03194

Time = 0.03195

Time = 0.03196

Time = 0.03197

Time = 0.03198

Time = 0.03199

Time = 0.032

Time = 0.03201

Time = 0.03202

Time = 0.03203

Time = 0.03204

Time = 0.03205

Time = 0.03206

Time = 0.03207

Time = 0.03208

Time = 0.03209

Time = 0.0321

Time = 0.03211

Time = 0.03212

Time = 0.03213

Time = 0.03214

Time = 0.03215

Time = 0.03216

Time = 0.03217

Time = 0.03218

Time = 0.03219

Time = 0.0322

Time = 0.03221

Time = 0.03222

Time = 0.03223

Time = 0.03224

Time = 0.03225

Time = 0.03226

Time = 0.03227

Time = 0.03228

Time = 0.03229

Time = 0.0323

Time = 0.03231

Time = 0.03232

Time = 0.03233

Time = 0.03234

Time = 0.03235

Time = 0.03236

Time = 0.03237

Time = 0.03238

Time = 0.03239

Time = 0.0324

Time = 0.03241

Time = 0.03242

Time = 0.03243

Time = 0.03244

Time = 0.03245

Time = 0.03246

Time = 0.03247

Time = 0.03248

Time = 0.03249

Time = 0.0325

Time = 0.03251

Time = 0.03252

Time = 0.03253

Time = 0.03254

Time = 0.03255

Time = 0.03256

Time = 0.03257

Time = 0.03258

Time = 0.03259

Time = 0.0326

Time = 0.03261

Time = 0.03262

Time = 0.03263

Time = 0.03264

Time = 0.03265

Time = 0.03266

Time = 0.03267

Time = 0.03268

Time = 0.03269

Time = 0.0327

Time = 0.03271

Time = 0.03272

Time = 0.03273

Time = 0.03274

Time = 0.03275

Time = 0.03276

Time = 0.03277

Time = 0.03278

Time = 0.03279

Time = 0.0328

Time = 0.03281

Time = 0.03282

Time = 0.03283

Time = 0.03284

Time = 0.03285

Time = 0.03286

Time = 0.03287

Time = 0.03288

Time = 0.03289

Time = 0.0329

Time = 0.03291

Time = 0.03292

Time = 0.03293

Time = 0.03294

Time = 0.03295

Time = 0.03296

Time = 0.03297

Time = 0.03298

Time = 0.03299

Time = 0.033

Time = 0.03301

Time = 0.03302

Time = 0.03303

Time = 0.03304

Time = 0.03305

Time = 0.03306

Time = 0.03307

Time = 0.03308

Time = 0.03309

Time = 0.0331

Time = 0.03311

Time = 0.03312

Time = 0.03313

Time = 0.03314

Time = 0.03315

Time = 0.03316

Time = 0.03317

Time = 0.03318

Time = 0.03319

Time = 0.0332

Time = 0.03321

Time = 0.03322

Time = 0.03323

Time = 0.03324

Time = 0.03325

Time = 0.03326

Time = 0.03327

Time = 0.03328

Time = 0.03329

Time = 0.0333

Time = 0.03331

Time = 0.03332

Time = 0.03333

Time = 0.03334

Time = 0.03335

Time = 0.03336

Time = 0.03337

Time = 0.03338

Time = 0.03339

Time = 0.0334

Time = 0.03341

Time = 0.03342

Time = 0.03343

Time = 0.03344

Time = 0.03345

Time = 0.03346

Time = 0.03347

Time = 0.03348

Time = 0.03349

Time = 0.0335

Time = 0.03351

Time = 0.03352

Time = 0.03353

Time = 0.03354

Time = 0.03355

Time = 0.03356

Time = 0.03357

Time = 0.03358

Time = 0.03359

Time = 0.0336

Time = 0.03361

Time = 0.03362

Time = 0.03363

Time = 0.03364

Time = 0.03365

Time = 0.03366

Time = 0.03367

Time = 0.03368

Time = 0.03369

Time = 0.0337

Time = 0.03371

Time = 0.03372

Time = 0.03373

Time = 0.03374

Time = 0.03375

Time = 0.03376

Time = 0.03377

Time = 0.03378

Time = 0.03379

Time = 0.0338

Time = 0.03381

Time = 0.03382

Time = 0.03383

Time = 0.03384

Time = 0.03385

Time = 0.03386

Time = 0.03387

Time = 0.03388

Time = 0.03389

Time = 0.0339

Time = 0.03391

Time = 0.03392

Time = 0.03393

Time = 0.03394

Time = 0.03395

Time = 0.03396

Time = 0.03397

Time = 0.03398

Time = 0.03399

Time = 0.034

Time = 0.03401

Time = 0.03402

Time = 0.03403

Time = 0.03404

Time = 0.03405

Time = 0.03406

Time = 0.03407

Time = 0.03408

Time = 0.03409

Time = 0.0341

Time = 0.03411

Time = 0.03412

Time = 0.03413

Time = 0.03414

Time = 0.03415

Time = 0.03416

Time = 0.03417

Time = 0.03418

Time = 0.03419

Time = 0.0342

Time = 0.03421

Time = 0.03422

Time = 0.03423

Time = 0.03424

Time = 0.03425

Time = 0.03426

Time = 0.03427

Time = 0.03428

Time = 0.03429

Time = 0.0343

Time = 0.03431

Time = 0.03432

Time = 0.03433

Time = 0.03434

Time = 0.03435

Time = 0.03436

Time = 0.03437

Time = 0.03438

Time = 0.03439

Time = 0.0344

Time = 0.03441

Time = 0.03442

Time = 0.03443

Time = 0.03444

Time = 0.03445

Time = 0.03446

Time = 0.03447

Time = 0.03448

Time = 0.03449

Time = 0.0345

Time = 0.03451

Time = 0.03452

Time = 0.03453

Time = 0.03454

Time = 0.03455

Time = 0.03456

Time = 0.03457

Time = 0.03458

Time = 0.03459

Time = 0.0346

Time = 0.03461

Time = 0.03462

Time = 0.03463

Time = 0.03464

Time = 0.03465

Time = 0.03466

Time = 0.03467

Time = 0.03468

Time = 0.03469

Time = 0.0347

Time = 0.03471

Time = 0.03472

Time = 0.03473

Time = 0.03474

Time = 0.03475

Time = 0.03476

Time = 0.03477

Time = 0.03478

Time = 0.03479

Time = 0.0348

Time = 0.03481

Time = 0.03482

Time = 0.03483

Time = 0.03484

Time = 0.03485

Time = 0.03486

Time = 0.03487

Time = 0.03488

Time = 0.03489

Time = 0.0349

Time = 0.03491

Time = 0.03492

Time = 0.03493

Time = 0.03494

Time = 0.03495

Time = 0.03496

Time = 0.03497

Time = 0.03498

Time = 0.03499

Time = 0.035

Time = 0.03501

Time = 0.03502

Time = 0.03503

Time = 0.03504

Time = 0.03505

Time = 0.03506

Time = 0.03507

Time = 0.03508

Time = 0.03509

Time = 0.0351

Time = 0.03511

Time = 0.03512

Time = 0.03513

Time = 0.03514

Time = 0.03515

Time = 0.03516

Time = 0.03517

Time = 0.03518

Time = 0.03519

Time = 0.0352

Time = 0.03521

Time = 0.03522

Time = 0.03523

Time = 0.03524

Time = 0.03525

Time = 0.03526

Time = 0.03527

Time = 0.03528

Time = 0.03529

Time = 0.0353

Time = 0.03531

Time = 0.03532

Time = 0.03533

Time = 0.03534

Time = 0.03535

Time = 0.03536

Time = 0.03537

Time = 0.03538

Time = 0.03539

Time = 0.0354

Time = 0.03541

Time = 0.03542

Time = 0.03543

Time = 0.03544

Time = 0.03545

Time = 0.03546

Time = 0.03547

Time = 0.03548

Time = 0.03549

Time = 0.0355

Time = 0.03551

Time = 0.03552

Time = 0.03553

Time = 0.03554

Time = 0.03555

Time = 0.03556

Time = 0.03557

Time = 0.03558

Time = 0.03559

Time = 0.0356

Time = 0.03561

Time = 0.03562

Time = 0.03563

Time = 0.03564

Time = 0.03565

Time = 0.03566

Time = 0.03567

Time = 0.03568

Time = 0.03569

Time = 0.0357

Time = 0.03571

Time = 0.03572

Time = 0.03573

Time = 0.03574

Time = 0.03575

Time = 0.03576

Time = 0.03577

Time = 0.03578

Time = 0.03579

Time = 0.0358

Time = 0.03581

Time = 0.03582

Time = 0.03583

Time = 0.03584

Time = 0.03585

Time = 0.03586

Time = 0.03587

Time = 0.03588

Time = 0.03589

Time = 0.0359

Time = 0.03591

Time = 0.03592

Time = 0.03593

Time = 0.03594

Time = 0.03595

Time = 0.03596

Time = 0.03597

Time = 0.03598

Time = 0.03599

Time = 0.036

Time = 0.03601

Time = 0.03602

Time = 0.03603

Time = 0.03604

Time = 0.03605

Time = 0.03606

Time = 0.03607

Time = 0.03608

Time = 0.03609

Time = 0.0361

Time = 0.03611

Time = 0.03612

Time = 0.03613

Time = 0.03614

Time = 0.03615

Time = 0.03616

Time = 0.03617

Time = 0.03618

Time = 0.03619

Time = 0.0362

Time = 0.03621

Time = 0.03622

Time = 0.03623

Time = 0.03624

Time = 0.03625

Time = 0.03626

Time = 0.03627

Time = 0.03628

Time = 0.03629

Time = 0.0363

Time = 0.03631

Time = 0.03632

Time = 0.03633

Time = 0.03634

Time = 0.03635

Time = 0.03636

Time = 0.03637

Time = 0.03638

Time = 0.03639

Time = 0.0364

Time = 0.03641

Time = 0.03642

Time = 0.03643

Time = 0.03644

Time = 0.03645

Time = 0.03646

Time = 0.03647

Time = 0.03648

Time = 0.03649

Time = 0.0365

Time = 0.03651

Time = 0.03652

Time = 0.03653

Time = 0.03654

Time = 0.03655

Time = 0.03656

Time = 0.03657

Time = 0.03658

Time = 0.03659

Time = 0.0366

Time = 0.03661

Time = 0.03662

Time = 0.03663

Time = 0.03664

Time = 0.03665

Time = 0.03666

Time = 0.03667

Time = 0.03668

Time = 0.03669

Time = 0.0367

Time = 0.03671

Time = 0.03672

Time = 0.03673

Time = 0.03674

Time = 0.03675

Time = 0.03676

Time = 0.03677

Time = 0.03678

Time = 0.03679

Time = 0.0368

Time = 0.03681

Time = 0.03682

Time = 0.03683

Time = 0.03684

Time = 0.03685

Time = 0.03686

Time = 0.03687

Time = 0.03688

Time = 0.03689

Time = 0.0369

Time = 0.03691

Time = 0.03692

Time = 0.03693

Time = 0.03694

Time = 0.03695

Time = 0.03696

Time = 0.03697

Time = 0.03698

Time = 0.03699

Time = 0.037

Time = 0.03701

Time = 0.03702

Time = 0.03703

Time = 0.03704

Time = 0.03705

Time = 0.03706

Time = 0.03707

Time = 0.03708

Time = 0.03709

Time = 0.0371

Time = 0.03711

Time = 0.03712

Time = 0.03713

Time = 0.03714

Time = 0.03715

Time = 0.03716

Time = 0.03717

Time = 0.03718

Time = 0.03719

Time = 0.0372

Time = 0.03721

Time = 0.03722

Time = 0.03723

Time = 0.03724

Time = 0.03725

Time = 0.03726

Time = 0.03727

Time = 0.03728

Time = 0.03729

Time = 0.0373

Time = 0.03731

Time = 0.03732

Time = 0.03733

Time = 0.03734

Time = 0.03735

Time = 0.03736

Time = 0.03737

Time = 0.03738

Time = 0.03739

Time = 0.0374

Time = 0.03741

Time = 0.03742

Time = 0.03743

Time = 0.03744

Time = 0.03745

Time = 0.03746

Time = 0.03747

Time = 0.03748

Time = 0.03749

Time = 0.0375

Time = 0.03751

Time = 0.03752

Time = 0.03753

Time = 0.03754

Time = 0.03755

Time = 0.03756

Time = 0.03757

Time = 0.03758

Time = 0.03759

Time = 0.0376

Time = 0.03761

Time = 0.03762

Time = 0.03763

Time = 0.03764

Time = 0.03765

Time = 0.03766

Time = 0.03767

Time = 0.03768

Time = 0.03769

Time = 0.0377

Time = 0.03771

Time = 0.03772

Time = 0.03773

Time = 0.03774

Time = 0.03775

Time = 0.03776

Time = 0.03777

Time = 0.03778

Time = 0.03779

Time = 0.0378

Time = 0.03781

Time = 0.03782

Time = 0.03783

Time = 0.03784

Time = 0.03785

Time = 0.03786

Time = 0.03787

Time = 0.03788

Time = 0.03789

Time = 0.0379

Time = 0.03791

Time = 0.03792

Time = 0.03793

Time = 0.03794

Time = 0.03795

Time = 0.03796

Time = 0.03797

Time = 0.03798

Time = 0.03799

Time = 0.038

Time = 0.03801

Time = 0.03802

Time = 0.03803

Time = 0.03804

Time = 0.03805

Time = 0.03806

Time = 0.03807

Time = 0.03808

Time = 0.03809

Time = 0.0381

Time = 0.03811

Time = 0.03812

Time = 0.03813

Time = 0.03814

Time = 0.03815

Time = 0.03816

Time = 0.03817

Time = 0.03818

Time = 0.03819

Time = 0.0382

Time = 0.03821

Time = 0.03822

Time = 0.03823

Time = 0.03824

Time = 0.03825

Time = 0.03826

Time = 0.03827

Time = 0.03828

Time = 0.03829

Time = 0.0383

Time = 0.03831

Time = 0.03832

Time = 0.03833

Time = 0.03834

Time = 0.03835

Time = 0.03836

Time = 0.03837

Time = 0.03838

Time = 0.03839

Time = 0.0384

Time = 0.03841

Time = 0.03842

Time = 0.03843

Time = 0.03844

Time = 0.03845

Time = 0.03846

Time = 0.03847

Time = 0.03848

Time = 0.03849

Time = 0.0385

Time = 0.03851

Time = 0.03852

Time = 0.03853

Time = 0.03854

Time = 0.03855

Time = 0.03856

Time = 0.03857

Time = 0.03858

Time = 0.03859

Time = 0.0386

Time = 0.03861

Time = 0.03862

Time = 0.03863

Time = 0.03864

Time = 0.03865

Time = 0.03866

Time = 0.03867

Time = 0.03868

Time = 0.03869

Time = 0.0387

Time = 0.03871

Time = 0.03872

Time = 0.03873

Time = 0.03874

Time = 0.03875

Time = 0.03876

Time = 0.03877

Time = 0.03878

Time = 0.03879

Time = 0.0388

Time = 0.03881

Time = 0.03882

Time = 0.03883

Time = 0.03884

Time = 0.03885

Time = 0.03886

Time = 0.03887

Time = 0.03888

Time = 0.03889

Time = 0.0389

Time = 0.03891

Time = 0.03892

Time = 0.03893

Time = 0.03894

Time = 0.03895

Time = 0.03896

Time = 0.03897

Time = 0.03898

Time = 0.03899

Time = 0.039

Time = 0.03901

Time = 0.03902

Time = 0.03903

Time = 0.03904

Time = 0.03905

Time = 0.03906

Time = 0.03907

Time = 0.03908

Time = 0.03909

Time = 0.0391

Time = 0.03911

Time = 0.03912

Time = 0.03913

Time = 0.03914

Time = 0.03915

Time = 0.03916

Time = 0.03917

Time = 0.03918

Time = 0.03919

Time = 0.0392

Time = 0.03921

Time = 0.03922

Time = 0.03923

Time = 0.03924

Time = 0.03925

Time = 0.03926

Time = 0.03927

Time = 0.03928

Time = 0.03929

Time = 0.0393

Time = 0.03931

Time = 0.03932

Time = 0.03933

Time = 0.03934

Time = 0.03935

Time = 0.03936

Time = 0.03937

Time = 0.03938

Time = 0.03939

Time = 0.0394

Time = 0.03941

Time = 0.03942

Time = 0.03943

Time = 0.03944

Time = 0.03945

Time = 0.03946

Time = 0.03947

Time = 0.03948

Time = 0.03949

Time = 0.0395

Time = 0.03951

Time = 0.03952

Time = 0.03953

Time = 0.03954

Time = 0.03955

Time = 0.03956

Time = 0.03957

Time = 0.03958

Time = 0.03959

Time = 0.0396

Time = 0.03961

Time = 0.03962

Time = 0.03963

Time = 0.03964

Time = 0.03965

Time = 0.03966

Time = 0.03967

Time = 0.03968

Time = 0.03969

Time = 0.0397

Time = 0.03971

Time = 0.03972

Time = 0.03973

Time = 0.03974

Time = 0.03975

Time = 0.03976

Time = 0.03977

Time = 0.03978

Time = 0.03979

Time = 0.0398

Time = 0.03981

Time = 0.03982

Time = 0.03983

Time = 0.03984

Time = 0.03985

Time = 0.03986

Time = 0.03987

Time = 0.03988

Time = 0.03989

Time = 0.0399

Time = 0.03991

Time = 0.03992

Time = 0.03993

Time = 0.03994

Time = 0.03995

Time = 0.03996

Time = 0.03997

Time = 0.03998

Time = 0.03999

Time = 0.04

Time = 0.04001

Time = 0.04002

Time = 0.04003

Time = 0.04004

Time = 0.04005

Time = 0.04006

Time = 0.04007

Time = 0.04008

Time = 0.04009

Time = 0.0401

Time = 0.04011

Time = 0.04012

Time = 0.04013

Time = 0.04014

Time = 0.04015

Time = 0.04016

Time = 0.04017

Time = 0.04018

Time = 0.04019

Time = 0.0402

Time = 0.04021

Time = 0.04022

Time = 0.04023

Time = 0.04024

Time = 0.04025

Time = 0.04026

Time = 0.04027

Time = 0.04028

Time = 0.04029

Time = 0.0403

Time = 0.04031

Time = 0.04032

Time = 0.04033

Time = 0.04034

Time = 0.04035

Time = 0.04036

Time = 0.04037

Time = 0.04038

Time = 0.04039

Time = 0.0404

Time = 0.04041

Time = 0.04042

Time = 0.04043

Time = 0.04044

Time = 0.04045

Time = 0.04046

Time = 0.04047

Time = 0.04048

Time = 0.04049

Time = 0.0405

Time = 0.04051

Time = 0.04052

Time = 0.04053

Time = 0.04054

Time = 0.04055

Time = 0.04056

Time = 0.04057

Time = 0.04058

Time = 0.04059

Time = 0.0406

Time = 0.04061

Time = 0.04062

Time = 0.04063

Time = 0.04064

Time = 0.04065

Time = 0.04066

Time = 0.04067

Time = 0.04068

Time = 0.04069

Time = 0.0407

Time = 0.04071

Time = 0.04072

Time = 0.04073

Time = 0.04074

Time = 0.04075

Time = 0.04076

Time = 0.04077

Time = 0.04078

Time = 0.04079

Time = 0.0408

Time = 0.04081

Time = 0.04082

Time = 0.04083

Time = 0.04084

Time = 0.04085

Time = 0.04086

Time = 0.04087

Time = 0.04088

Time = 0.04089

Time = 0.0409

Time = 0.04091

Time = 0.04092

Time = 0.04093

Time = 0.04094

Time = 0.04095

Time = 0.04096

Time = 0.04097

Time = 0.04098

Time = 0.04099

Time = 0.041

Time = 0.04101

Time = 0.04102

Time = 0.04103

Time = 0.04104

Time = 0.04105

Time = 0.04106

Time = 0.04107

Time = 0.04108

Time = 0.04109

Time = 0.0411

Time = 0.04111

Time = 0.04112

Time = 0.04113

Time = 0.04114

Time = 0.04115

Time = 0.04116

Time = 0.04117

Time = 0.04118

Time = 0.04119

Time = 0.0412

Time = 0.04121

Time = 0.04122

Time = 0.04123

Time = 0.04124

Time = 0.04125

Time = 0.04126

Time = 0.04127

Time = 0.04128

Time = 0.04129

Time = 0.0413

Time = 0.04131

Time = 0.04132

Time = 0.04133

Time = 0.04134

Time = 0.04135

Time = 0.04136

Time = 0.04137

Time = 0.04138

Time = 0.04139

Time = 0.0414

Time = 0.04141

Time = 0.04142

Time = 0.04143

Time = 0.04144

Time = 0.04145

Time = 0.04146

Time = 0.04147

Time = 0.04148

Time = 0.04149

Time = 0.0415

Time = 0.04151

Time = 0.04152

Time = 0.04153

Time = 0.04154

Time = 0.04155

Time = 0.04156

Time = 0.04157

Time = 0.04158

Time = 0.04159

Time = 0.0416

Time = 0.04161

Time = 0.04162

Time = 0.04163

Time = 0.04164

Time = 0.04165

Time = 0.04166

Time = 0.04167

Time = 0.04168

Time = 0.04169

Time = 0.0417

Time = 0.04171

Time = 0.04172

Time = 0.04173

Time = 0.04174

Time = 0.04175

Time = 0.04176

Time = 0.04177

Time = 0.04178

Time = 0.04179

Time = 0.0418

Time = 0.04181

Time = 0.04182

Time = 0.04183

Time = 0.04184

Time = 0.04185

Time = 0.04186

Time = 0.04187

Time = 0.04188

Time = 0.04189

Time = 0.0419

Time = 0.04191

Time = 0.04192

Time = 0.04193

Time = 0.04194

Time = 0.04195

Time = 0.04196

Time = 0.04197

Time = 0.04198

Time = 0.04199

Time = 0.042

Time = 0.04201

Time = 0.04202

Time = 0.04203

Time = 0.04204

Time = 0.04205

Time = 0.04206

Time = 0.04207

Time = 0.04208

Time = 0.04209

Time = 0.0421

Time = 0.04211

Time = 0.04212

Time = 0.04213

Time = 0.04214

Time = 0.04215

Time = 0.04216

Time = 0.04217

Time = 0.04218

Time = 0.04219

Time = 0.0422

Time = 0.04221

Time = 0.04222

Time = 0.04223

Time = 0.04224

Time = 0.04225

Time = 0.04226

Time = 0.04227

Time = 0.04228

Time = 0.04229

Time = 0.0423

Time = 0.04231

Time = 0.04232

Time = 0.04233

Time = 0.04234

Time = 0.04235

Time = 0.04236

Time = 0.04237

Time = 0.04238

Time = 0.04239

Time = 0.0424

Time = 0.04241

Time = 0.04242

Time = 0.04243

Time = 0.04244

Time = 0.04245

Time = 0.04246

Time = 0.04247

Time = 0.04248

Time = 0.04249

Time = 0.0425

Time = 0.04251

Time = 0.04252

Time = 0.04253

Time = 0.04254

Time = 0.04255

Time = 0.04256

Time = 0.04257

Time = 0.04258

Time = 0.04259

Time = 0.0426

Time = 0.04261

Time = 0.04262

Time = 0.04263

Time = 0.04264

Time = 0.04265

Time = 0.04266

Time = 0.04267

Time = 0.04268

Time = 0.04269

Time = 0.0427

Time = 0.04271

Time = 0.04272

Time = 0.04273

Time = 0.04274

Time = 0.04275

Time = 0.04276

Time = 0.04277

Time = 0.04278

Time = 0.04279

Time = 0.0428

Time = 0.04281

Time = 0.04282

Time = 0.04283

Time = 0.04284

Time = 0.04285

Time = 0.04286

Time = 0.04287

Time = 0.04288

Time = 0.04289

Time = 0.0429

Time = 0.04291

Time = 0.04292

Time = 0.04293

Time = 0.04294

Time = 0.04295

Time = 0.04296

Time = 0.04297

Time = 0.04298

Time = 0.04299

Time = 0.043

Time = 0.04301

Time = 0.04302

Time = 0.04303

Time = 0.04304

Time = 0.04305

Time = 0.04306

Time = 0.04307

Time = 0.04308

Time = 0.04309

Time = 0.0431

Time = 0.04311

Time = 0.04312

Time = 0.04313

Time = 0.04314

Time = 0.04315

Time = 0.04316

Time = 0.04317

Time = 0.04318

Time = 0.04319

Time = 0.0432

Time = 0.04321

Time = 0.04322

Time = 0.04323

Time = 0.04324

Time = 0.04325

Time = 0.04326

Time = 0.04327

Time = 0.04328

Time = 0.04329

Time = 0.0433

Time = 0.04331

Time = 0.04332

Time = 0.04333

Time = 0.04334

Time = 0.04335

Time = 0.04336

Time = 0.04337

Time = 0.04338

Time = 0.04339

Time = 0.0434

Time = 0.04341

Time = 0.04342

Time = 0.04343

Time = 0.04344

Time = 0.04345

Time = 0.04346

Time = 0.04347

Time = 0.04348

Time = 0.04349

Time = 0.0435

Time = 0.04351

Time = 0.04352

Time = 0.04353

Time = 0.04354

Time = 0.04355

Time = 0.04356

Time = 0.04357

Time = 0.04358

Time = 0.04359

Time = 0.0436

Time = 0.04361

Time = 0.04362

Time = 0.04363

Time = 0.04364

Time = 0.04365

Time = 0.04366

Time = 0.04367

Time = 0.04368

Time = 0.04369

Time = 0.0437

Time = 0.04371

Time = 0.04372

Time = 0.04373

Time = 0.04374

Time = 0.04375

Time = 0.04376

Time = 0.04377

Time = 0.04378

Time = 0.04379

Time = 0.0438

Time = 0.04381

Time = 0.04382

Time = 0.04383

Time = 0.04384

Time = 0.04385

Time = 0.04386

Time = 0.04387

Time = 0.04388

Time = 0.04389

Time = 0.0439

Time = 0.04391

Time = 0.04392

Time = 0.04393

Time = 0.04394

Time = 0.04395

Time = 0.04396

Time = 0.04397

Time = 0.04398

Time = 0.04399

Time = 0.044

Time = 0.04401

Time = 0.04402

Time = 0.04403

Time = 0.04404

Time = 0.04405

Time = 0.04406

Time = 0.04407

Time = 0.04408

Time = 0.04409

Time = 0.0441

Time = 0.04411

Time = 0.04412

Time = 0.04413

Time = 0.04414

Time = 0.04415

Time = 0.04416

Time = 0.04417

Time = 0.04418

Time = 0.04419

Time = 0.0442

Time = 0.04421

Time = 0.04422

Time = 0.04423

Time = 0.04424

Time = 0.04425

Time = 0.04426

Time = 0.04427

Time = 0.04428

Time = 0.04429

Time = 0.0443

Time = 0.04431

Time = 0.04432

Time = 0.04433

Time = 0.04434

Time = 0.04435

Time = 0.04436

Time = 0.04437

Time = 0.04438

Time = 0.04439

Time = 0.0444

Time = 0.04441

Time = 0.04442

Time = 0.04443

Time = 0.04444

Time = 0.04445

Time = 0.04446

Time = 0.04447

Time = 0.04448

Time = 0.04449

Time = 0.0445

Time = 0.04451

Time = 0.04452

Time = 0.04453

Time = 0.04454

Time = 0.04455

Time = 0.04456

Time = 0.04457

Time = 0.04458

Time = 0.04459

Time = 0.0446

Time = 0.04461

Time = 0.04462

Time = 0.04463

Time = 0.04464

Time = 0.04465

Time = 0.04466

Time = 0.04467

Time = 0.04468

Time = 0.04469

Time = 0.0447

Time = 0.04471

Time = 0.04472

Time = 0.04473

Time = 0.04474

Time = 0.04475

Time = 0.04476

Time = 0.04477

Time = 0.04478

Time = 0.04479

Time = 0.0448

Time = 0.04481

Time = 0.04482

Time = 0.04483

Time = 0.04484

Time = 0.04485

Time = 0.04486

Time = 0.04487

Time = 0.04488

Time = 0.04489

Time = 0.0449

Time = 0.04491

Time = 0.04492

Time = 0.04493

Time = 0.04494

Time = 0.04495

Time = 0.04496

Time = 0.04497

Time = 0.04498

Time = 0.04499

Time = 0.045

Time = 0.04501

Time = 0.04502

Time = 0.04503

Time = 0.04504

Time = 0.04505

Time = 0.04506

Time = 0.04507

Time = 0.04508

Time = 0.04509

Time = 0.0451

Time = 0.04511

Time = 0.04512

Time = 0.04513

Time = 0.04514

Time = 0.04515

Time = 0.04516

Time = 0.04517

Time = 0.04518

Time = 0.04519

Time = 0.0452

Time = 0.04521

Time = 0.04522

Time = 0.04523

Time = 0.04524

Time = 0.04525

Time = 0.04526

Time = 0.04527

Time = 0.04528

Time = 0.04529

Time = 0.0453

Time = 0.04531

Time = 0.04532

Time = 0.04533

Time = 0.04534

Time = 0.04535

Time = 0.04536

Time = 0.04537

Time = 0.04538

Time = 0.04539

Time = 0.0454

Time = 0.04541

Time = 0.04542

Time = 0.04543

Time = 0.04544

Time = 0.04545

Time = 0.04546

Time = 0.04547

Time = 0.04548

Time = 0.04549

Time = 0.0455

Time = 0.04551

Time = 0.04552

Time = 0.04553

Time = 0.04554

Time = 0.04555

Time = 0.04556

Time = 0.04557

Time = 0.04558

Time = 0.04559

Time = 0.0456

Time = 0.04561

Time = 0.04562

Time = 0.04563

Time = 0.04564

Time = 0.04565

Time = 0.04566

Time = 0.04567

Time = 0.04568

Time = 0.04569

Time = 0.0457

Time = 0.04571

Time = 0.04572

Time = 0.04573

Time = 0.04574

Time = 0.04575

Time = 0.04576

Time = 0.04577

Time = 0.04578

Time = 0.04579

Time = 0.0458

Time = 0.04581

Time = 0.04582

Time = 0.04583

Time = 0.04584

Time = 0.04585

Time = 0.04586

Time = 0.04587

Time = 0.04588

Time = 0.04589

Time = 0.0459

Time = 0.04591

Time = 0.04592

Time = 0.04593

Time = 0.04594

Time = 0.04595

Time = 0.04596

Time = 0.04597

Time = 0.04598

Time = 0.04599

Time = 0.046

Time = 0.04601

Time = 0.04602

Time = 0.04603

Time = 0.04604

Time = 0.04605

Time = 0.04606

Time = 0.04607

Time = 0.04608

Time = 0.04609

Time = 0.0461

Time = 0.04611

Time = 0.04612

Time = 0.04613

Time = 0.04614

Time = 0.04615

Time = 0.04616

Time = 0.04617

Time = 0.04618

Time = 0.04619

Time = 0.0462

Time = 0.04621

Time = 0.04622

Time = 0.04623

Time = 0.04624

Time = 0.04625

Time = 0.04626

Time = 0.04627

Time = 0.04628

Time = 0.04629

Time = 0.0463

Time = 0.04631

Time = 0.04632

Time = 0.04633

Time = 0.04634

Time = 0.04635

Time = 0.04636

Time = 0.04637

Time = 0.04638

Time = 0.04639

Time = 0.0464

Time = 0.04641

Time = 0.04642

Time = 0.04643

Time = 0.04644

Time = 0.04645

Time = 0.04646

Time = 0.04647

Time = 0.04648

Time = 0.04649

Time = 0.0465

Time = 0.04651

Time = 0.04652

Time = 0.04653

Time = 0.04654

Time = 0.04655

Time = 0.04656

Time = 0.04657

Time = 0.04658

Time = 0.04659

Time = 0.0466

Time = 0.04661

Time = 0.04662

Time = 0.04663

Time = 0.04664

Time = 0.04665

Time = 0.04666

Time = 0.04667

Time = 0.04668

Time = 0.04669

Time = 0.0467

Time = 0.04671

Time = 0.04672

Time = 0.04673

Time = 0.04674

Time = 0.04675

Time = 0.04676

Time = 0.04677

Time = 0.04678

Time = 0.04679

Time = 0.0468

Time = 0.04681

Time = 0.04682

Time = 0.04683

Time = 0.04684

Time = 0.04685

Time = 0.04686

Time = 0.04687

Time = 0.04688

Time = 0.04689

Time = 0.0469

Time = 0.04691

Time = 0.04692

Time = 0.04693

Time = 0.04694

Time = 0.04695

Time = 0.04696

Time = 0.04697

Time = 0.04698

Time = 0.04699

Time = 0.047

Time = 0.04701

Time = 0.04702

Time = 0.04703

Time = 0.04704

Time = 0.04705

Time = 0.04706

Time = 0.04707

Time = 0.04708

Time = 0.04709

Time = 0.0471

Time = 0.04711

Time = 0.04712

Time = 0.04713

Time = 0.04714

Time = 0.04715

Time = 0.04716

Time = 0.04717

Time = 0.04718

Time = 0.04719

Time = 0.0472

Time = 0.04721

Time = 0.04722

Time = 0.04723

Time = 0.04724

Time = 0.04725

Time = 0.04726

Time = 0.04727

Time = 0.04728

Time = 0.04729

Time = 0.0473

Time = 0.04731

Time = 0.04732

Time = 0.04733

Time = 0.04734

Time = 0.04735

Time = 0.04736

Time = 0.04737

Time = 0.04738

Time = 0.04739

Time = 0.0474

Time = 0.04741

Time = 0.04742

Time = 0.04743

Time = 0.04744

Time = 0.04745

Time = 0.04746

Time = 0.04747

Time = 0.04748

Time = 0.04749

Time = 0.0475

Time = 0.04751

Time = 0.04752

Time = 0.04753

Time = 0.04754

Time = 0.04755

Time = 0.04756

Time = 0.04757

Time = 0.04758

Time = 0.04759

Time = 0.0476

Time = 0.04761

Time = 0.04762

Time = 0.04763

Time = 0.04764

Time = 0.04765

Time = 0.04766

Time = 0.04767

Time = 0.04768

Time = 0.04769

Time = 0.0477

Time = 0.04771

Time = 0.04772

Time = 0.04773

Time = 0.04774

Time = 0.04775

Time = 0.04776

Time = 0.04777

Time = 0.04778

Time = 0.04779

Time = 0.0478

Time = 0.04781

Time = 0.04782

Time = 0.04783

Time = 0.04784

Time = 0.04785

Time = 0.04786

Time = 0.04787

Time = 0.04788

Time = 0.04789

Time = 0.0479

Time = 0.04791

Time = 0.04792

Time = 0.04793

Time = 0.04794

Time = 0.04795

Time = 0.04796

Time = 0.04797

Time = 0.04798

Time = 0.04799

Time = 0.048

Time = 0.04801

Time = 0.04802

Time = 0.04803

Time = 0.04804

Time = 0.04805

Time = 0.04806

Time = 0.04807

Time = 0.04808

Time = 0.04809

Time = 0.0481

Time = 0.04811

Time = 0.04812

Time = 0.04813

Time = 0.04814

Time = 0.04815

Time = 0.04816

Time = 0.04817

Time = 0.04818

Time = 0.04819

Time = 0.0482

Time = 0.04821

Time = 0.04822

Time = 0.04823

Time = 0.04824

Time = 0.04825

Time = 0.04826

Time = 0.04827

Time = 0.04828

Time = 0.04829

Time = 0.0483

Time = 0.04831

Time = 0.04832

Time = 0.04833

Time = 0.04834

Time = 0.04835

Time = 0.04836

Time = 0.04837

Time = 0.04838

Time = 0.04839

Time = 0.0484

Time = 0.04841

Time = 0.04842

Time = 0.04843

Time = 0.04844

Time = 0.04845

Time = 0.04846

Time = 0.04847

Time = 0.04848

Time = 0.04849

Time = 0.0485

Time = 0.04851

Time = 0.04852

Time = 0.04853

Time = 0.04854

Time = 0.04855

Time = 0.04856

Time = 0.04857

Time = 0.04858

Time = 0.04859

Time = 0.0486

Time = 0.04861

Time = 0.04862

Time = 0.04863

Time = 0.04864

Time = 0.04865

Time = 0.04866

Time = 0.04867

Time = 0.04868

Time = 0.04869

Time = 0.0487

Time = 0.04871

Time = 0.04872

Time = 0.04873

Time = 0.04874

Time = 0.04875

Time = 0.04876

Time = 0.04877

Time = 0.04878

Time = 0.04879

Time = 0.0488

Time = 0.04881

Time = 0.04882

Time = 0.04883

Time = 0.04884

Time = 0.04885

Time = 0.04886

Time = 0.04887

Time = 0.04888

Time = 0.04889

Time = 0.0489

Time = 0.04891

Time = 0.04892

Time = 0.04893

Time = 0.04894

Time = 0.04895

Time = 0.04896

Time = 0.04897

Time = 0.04898

Time = 0.04899

Time = 0.049

Time = 0.04901

Time = 0.04902

Time = 0.04903

Time = 0.04904

Time = 0.04905

Time = 0.04906

Time = 0.04907

Time = 0.04908

Time = 0.04909

Time = 0.0491

Time = 0.04911

Time = 0.04912

Time = 0.04913

Time = 0.04914

Time = 0.04915

Time = 0.04916

Time = 0.04917

Time = 0.04918

Time = 0.04919

Time = 0.0492

Time = 0.04921

Time = 0.04922

Time = 0.04923

Time = 0.04924

Time = 0.04925

Time = 0.04926

Time = 0.04927

Time = 0.04928

Time = 0.04929

Time = 0.0493

Time = 0.04931

Time = 0.04932

[...]

Time = 0.98755

Time = 0.98756

Time = 0.98757

Time = 0.98758

Time = 0.98759

Time = 0.9876

Time = 0.98761

Time = 0.98762

Time = 0.98763

Time = 0.98764

Time = 0.98765

Time = 0.98766

Time = 0.98767

Time = 0.98768

Time = 0.98769

Time = 0.9877

Time = 0.98771

Time = 0.98772

Time = 0.98773

Time = 0.98774

Time = 0.98775

Time = 0.98776

Time = 0.98777

Time = 0.98778

Time = 0.98779

Time = 0.9878

Time = 0.98781

Time = 0.98782

Time = 0.98783

Time = 0.98784

Time = 0.98785

Time = 0.98786

Time = 0.98787

Time = 0.98788

Time = 0.98789

Time = 0.9879

Time = 0.98791

Time = 0.98792

Time = 0.98793

Time = 0.98794

Time = 0.98795

Time = 0.98796

Time = 0.98797

Time = 0.98798

Time = 0.98799

Time = 0.988

Time = 0.98801

Time = 0.98802

Time = 0.98803

Time = 0.98804

Time = 0.98805

Time = 0.98806

Time = 0.98807

Time = 0.98808

Time = 0.98809

Time = 0.9881

Time = 0.98811

Time = 0.98812

Time = 0.98813

Time = 0.98814

Time = 0.98815

Time = 0.98816

Time = 0.98817

Time = 0.98818

Time = 0.98819

Time = 0.9882

Time = 0.98821

Time = 0.98822

Time = 0.98823

Time = 0.98824

Time = 0.98825

Time = 0.98826

Time = 0.98827

Time = 0.98828

Time = 0.98829

Time = 0.9883

Time = 0.98831

Time = 0.98832

Time = 0.98833

Time = 0.98834

Time = 0.98835

Time = 0.98836

Time = 0.98837

Time = 0.98838

Time = 0.98839

Time = 0.9884

Time = 0.98841

Time = 0.98842

Time = 0.98843

Time = 0.98844

Time = 0.98845

Time = 0.98846

Time = 0.98847

Time = 0.98848

Time = 0.98849

Time = 0.9885

Time = 0.98851

Time = 0.98852

Time = 0.98853

Time = 0.98854

Time = 0.98855

Time = 0.98856

Time = 0.98857

Time = 0.98858

Time = 0.98859

Time = 0.9886

Time = 0.98861

Time = 0.98862

Time = 0.98863

Time = 0.98864

Time = 0.98865

Time = 0.98866

Time = 0.98867

Time = 0.98868

Time = 0.98869

Time = 0.9887

Time = 0.98871

Time = 0.98872

Time = 0.98873

Time = 0.98874

Time = 0.98875

Time = 0.98876

Time = 0.98877

Time = 0.98878

Time = 0.98879

Time = 0.9888

Time = 0.98881

Time = 0.98882

Time = 0.98883

Time = 0.98884

Time = 0.98885

Time = 0.98886

Time = 0.98887

Time = 0.98888

Time = 0.98889

Time = 0.9889

Time = 0.98891

Time = 0.98892

Time = 0.98893

Time = 0.98894

Time = 0.98895

Time = 0.98896

Time = 0.98897

Time = 0.98898

Time = 0.98899

Time = 0.989

Time = 0.98901

Time = 0.98902

Time = 0.98903

Time = 0.98904

Time = 0.98905

Time = 0.98906

Time = 0.98907

Time = 0.98908

Time = 0.98909

Time = 0.9891

Time = 0.98911

Time = 0.98912

Time = 0.98913

Time = 0.98914

Time = 0.98915

Time = 0.98916

Time = 0.98917

Time = 0.98918

Time = 0.98919

Time = 0.9892

Time = 0.98921

Time = 0.98922

Time = 0.98923

Time = 0.98924

Time = 0.98925

Time = 0.98926

Time = 0.98927

Time = 0.98928

Time = 0.98929

Time = 0.9893

Time = 0.98931

Time = 0.98932

Time = 0.98933

Time = 0.98934

Time = 0.98935

Time = 0.98936

Time = 0.98937

Time = 0.98938

Time = 0.98939

Time = 0.9894

Time = 0.98941

Time = 0.98942

Time = 0.98943

Time = 0.98944

Time = 0.98945

Time = 0.98946

Time = 0.98947

Time = 0.98948

Time = 0.98949

Time = 0.9895

Time = 0.98951

Time = 0.98952

Time = 0.98953

Time = 0.98954

Time = 0.98955

Time = 0.98956

Time = 0.98957

Time = 0.98958

Time = 0.98959

Time = 0.9896

Time = 0.98961

Time = 0.98962

Time = 0.98963

Time = 0.98964

Time = 0.98965

Time = 0.98966

Time = 0.98967

Time = 0.98968

Time = 0.98969

Time = 0.9897

Time = 0.98971

Time = 0.98972

Time = 0.98973

Time = 0.98974

Time = 0.98975

Time = 0.98976

Time = 0.98977

Time = 0.98978

Time = 0.98979

Time = 0.9898

Time = 0.98981

Time = 0.98982

Time = 0.98983

Time = 0.98984

Time = 0.98985

Time = 0.98986

Time = 0.98987

Time = 0.98988

Time = 0.98989

Time = 0.9899

Time = 0.98991

Time = 0.98992

Time = 0.98993

Time = 0.98994

Time = 0.98995

Time = 0.98996

Time = 0.98997

Time = 0.98998

Time = 0.98999

Time = 0.99

Time = 0.99001

Time = 0.99002

Time = 0.99003

Time = 0.99004

Time = 0.99005

Time = 0.99006

Time = 0.99007

Time = 0.99008

Time = 0.99009

Time = 0.9901

Time = 0.99011

Time = 0.99012

Time = 0.99013

Time = 0.99014

Time = 0.99015

Time = 0.99016

Time = 0.99017

Time = 0.99018

Time = 0.99019

Time = 0.9902

Time = 0.99021

Time = 0.99022

Time = 0.99023

Time = 0.99024

Time = 0.99025

Time = 0.99026

Time = 0.99027

Time = 0.99028

Time = 0.99029

Time = 0.9903

Time = 0.99031

Time = 0.99032

Time = 0.99033

Time = 0.99034

Time = 0.99035

Time = 0.99036

Time = 0.99037

Time = 0.99038

Time = 0.99039

Time = 0.9904

Time = 0.99041

Time = 0.99042

Time = 0.99043

Time = 0.99044

Time = 0.99045

Time = 0.99046

Time = 0.99047

Time = 0.99048

Time = 0.99049

Time = 0.9905

Time = 0.99051

Time = 0.99052

Time = 0.99053

Time = 0.99054

Time = 0.99055

Time = 0.99056

Time = 0.99057

Time = 0.99058

Time = 0.99059

Time = 0.9906

Time = 0.99061

Time = 0.99062

Time = 0.99063

Time = 0.99064

Time = 0.99065

Time = 0.99066

Time = 0.99067

Time = 0.99068

Time = 0.99069

Time = 0.9907

Time = 0.99071

Time = 0.99072

Time = 0.99073

Time = 0.99074

Time = 0.99075

Time = 0.99076

Time = 0.99077

Time = 0.99078

Time = 0.99079

Time = 0.9908

Time = 0.99081

Time = 0.99082

Time = 0.99083

Time = 0.99084

Time = 0.99085

Time = 0.99086

Time = 0.99087

Time = 0.99088

Time = 0.99089

Time = 0.9909

Time = 0.99091

Time = 0.99092

Time = 0.99093

Time = 0.99094

Time = 0.99095

Time = 0.99096

Time = 0.99097

Time = 0.99098

Time = 0.99099

Time = 0.991

Time = 0.99101

Time = 0.99102

Time = 0.99103

Time = 0.99104

Time = 0.99105

Time = 0.99106

Time = 0.99107

Time = 0.99108

Time = 0.99109

Time = 0.9911

Time = 0.99111

Time = 0.99112

Time = 0.99113

Time = 0.99114

Time = 0.99115

Time = 0.99116

Time = 0.99117

Time = 0.99118

Time = 0.99119

Time = 0.9912

Time = 0.99121

Time = 0.99122

Time = 0.99123

Time = 0.99124

Time = 0.99125

Time = 0.99126

Time = 0.99127

Time = 0.99128

Time = 0.99129

Time = 0.9913

Time = 0.99131

Time = 0.99132

Time = 0.99133

Time = 0.99134

Time = 0.99135

Time = 0.99136

Time = 0.99137

Time = 0.99138

Time = 0.99139

Time = 0.9914

Time = 0.99141

Time = 0.99142

Time = 0.99143

Time = 0.99144

Time = 0.99145

Time = 0.99146

Time = 0.99147

Time = 0.99148

Time = 0.99149

Time = 0.9915

Time = 0.99151

Time = 0.99152

Time = 0.99153

Time = 0.99154

Time = 0.99155

Time = 0.99156

Time = 0.99157

Time = 0.99158

Time = 0.99159

Time = 0.9916

Time = 0.99161

Time = 0.99162

Time = 0.99163

Time = 0.99164

Time = 0.99165

Time = 0.99166

Time = 0.99167

Time = 0.99168

Time = 0.99169

Time = 0.9917

Time = 0.99171

Time = 0.99172

Time = 0.99173

Time = 0.99174

Time = 0.99175

Time = 0.99176

Time = 0.99177

Time = 0.99178

Time = 0.99179

Time = 0.9918

Time = 0.99181

Time = 0.99182

Time = 0.99183

Time = 0.99184

Time = 0.99185

Time = 0.99186

Time = 0.99187

Time = 0.99188

Time = 0.99189

Time = 0.9919

Time = 0.99191

Time = 0.99192

Time = 0.99193

Time = 0.99194

Time = 0.99195

Time = 0.99196

Time = 0.99197

Time = 0.99198

Time = 0.99199

Time = 0.992

Time = 0.99201

Time = 0.99202

Time = 0.99203

Time = 0.99204

Time = 0.99205

Time = 0.99206

Time = 0.99207

Time = 0.99208

Time = 0.99209

Time = 0.9921

Time = 0.99211

Time = 0.99212

Time = 0.99213

Time = 0.99214

Time = 0.99215

Time = 0.99216

Time = 0.99217

Time = 0.99218

Time = 0.99219

Time = 0.9922

Time = 0.99221

Time = 0.99222

Time = 0.99223

Time = 0.99224

Time = 0.99225

Time = 0.99226

Time = 0.99227

Time = 0.99228

Time = 0.99229

Time = 0.9923

Time = 0.99231

Time = 0.99232

Time = 0.99233

Time = 0.99234

Time = 0.99235

Time = 0.99236

Time = 0.99237

Time = 0.99238

Time = 0.99239

Time = 0.9924

Time = 0.99241

Time = 0.99242

Time = 0.99243

Time = 0.99244

Time = 0.99245

Time = 0.99246

Time = 0.99247

Time = 0.99248

Time = 0.99249

Time = 0.9925

Time = 0.99251

Time = 0.99252

Time = 0.99253

Time = 0.99254

Time = 0.99255

Time = 0.99256

Time = 0.99257

Time = 0.99258

Time = 0.99259

Time = 0.9926

Time = 0.99261

Time = 0.99262

Time = 0.99263

Time = 0.99264

Time = 0.99265

Time = 0.99266

Time = 0.99267

Time = 0.99268

Time = 0.99269

Time = 0.9927

Time = 0.99271

Time = 0.99272

Time = 0.99273

Time = 0.99274

Time = 0.99275

Time = 0.99276

Time = 0.99277

Time = 0.99278

Time = 0.99279

Time = 0.9928

Time = 0.99281

Time = 0.99282

Time = 0.99283

Time = 0.99284

Time = 0.99285

Time = 0.99286

Time = 0.99287

Time = 0.99288

Time = 0.99289

Time = 0.9929

Time = 0.99291

Time = 0.99292

Time = 0.99293

Time = 0.99294

Time = 0.99295

Time = 0.99296

Time = 0.99297

Time = 0.99298

Time = 0.99299

Time = 0.993

Time = 0.99301

Time = 0.99302

Time = 0.99303

Time = 0.99304

Time = 0.99305

Time = 0.99306

Time = 0.99307

Time = 0.99308

Time = 0.99309

Time = 0.9931

Time = 0.99311

Time = 0.99312

Time = 0.99313

Time = 0.99314

Time = 0.99315

Time = 0.99316

Time = 0.99317

Time = 0.99318

Time = 0.99319

Time = 0.9932

Time = 0.99321

Time = 0.99322

Time = 0.99323

Time = 0.99324

Time = 0.99325

Time = 0.99326

Time = 0.99327

Time = 0.99328

Time = 0.99329

Time = 0.9933

Time = 0.99331

Time = 0.99332

Time = 0.99333

Time = 0.99334

Time = 0.99335

Time = 0.99336

Time = 0.99337

Time = 0.99338

Time = 0.99339

Time = 0.9934

Time = 0.99341

Time = 0.99342

Time = 0.99343

Time = 0.99344

Time = 0.99345

Time = 0.99346

Time = 0.99347

Time = 0.99348

Time = 0.99349

Time = 0.9935

Time = 0.99351

Time = 0.99352

Time = 0.99353

Time = 0.99354

Time = 0.99355

Time = 0.99356

Time = 0.99357

Time = 0.99358

Time = 0.99359

Time = 0.9936

Time = 0.99361

Time = 0.99362

Time = 0.99363

Time = 0.99364

Time = 0.99365

Time = 0.99366

Time = 0.99367

Time = 0.99368

Time = 0.99369

Time = 0.9937

Time = 0.99371

Time = 0.99372

Time = 0.99373

Time = 0.99374

Time = 0.99375

Time = 0.99376

Time = 0.99377

Time = 0.99378

Time = 0.99379

Time = 0.9938

Time = 0.99381

Time = 0.99382

Time = 0.99383

Time = 0.99384

Time = 0.99385

Time = 0.99386

Time = 0.99387

Time = 0.99388

Time = 0.99389

Time = 0.9939

Time = 0.99391

Time = 0.99392

Time = 0.99393

Time = 0.99394

Time = 0.99395

Time = 0.99396

Time = 0.99397

Time = 0.99398

Time = 0.99399

Time = 0.994

Time = 0.99401

Time = 0.99402

Time = 0.99403

Time = 0.99404

Time = 0.99405

Time = 0.99406

Time = 0.99407

Time = 0.99408

Time = 0.99409

Time = 0.9941

Time = 0.99411

Time = 0.99412

Time = 0.99413

Time = 0.99414

Time = 0.99415

Time = 0.99416

Time = 0.99417

Time = 0.99418

Time = 0.99419

Time = 0.9942

Time = 0.99421

Time = 0.99422

Time = 0.99423

Time = 0.99424

Time = 0.99425

Time = 0.99426

Time = 0.99427

Time = 0.99428

Time = 0.99429

Time = 0.9943

Time = 0.99431

Time = 0.99432

Time = 0.99433

Time = 0.99434

Time = 0.99435

Time = 0.99436

Time = 0.99437

Time = 0.99438

Time = 0.99439

Time = 0.9944

Time = 0.99441

Time = 0.99442

Time = 0.99443

Time = 0.99444

Time = 0.99445

Time = 0.99446

Time = 0.99447

Time = 0.99448

Time = 0.99449

Time = 0.9945

Time = 0.99451

Time = 0.99452

Time = 0.99453

Time = 0.99454

Time = 0.99455

Time = 0.99456

Time = 0.99457

Time = 0.99458

Time = 0.99459

Time = 0.9946

Time = 0.99461

Time = 0.99462

Time = 0.99463

Time = 0.99464

Time = 0.99465

Time = 0.99466

Time = 0.99467

Time = 0.99468

Time = 0.99469

Time = 0.9947

Time = 0.99471

Time = 0.99472

Time = 0.99473

Time = 0.99474

Time = 0.99475

Time = 0.99476

Time = 0.99477

Time = 0.99478

Time = 0.99479

Time = 0.9948

Time = 0.99481

Time = 0.99482

Time = 0.99483

Time = 0.99484

Time = 0.99485

Time = 0.99486

Time = 0.99487

Time = 0.99488

Time = 0.99489

Time = 0.9949

Time = 0.99491

Time = 0.99492

Time = 0.99493

Time = 0.99494

Time = 0.99495

Time = 0.99496

Time = 0.99497

Time = 0.99498

Time = 0.99499

Time = 0.995

Time = 0.99501

Time = 0.99502

Time = 0.99503

Time = 0.99504

Time = 0.99505

Time = 0.99506

Time = 0.99507

Time = 0.99508

Time = 0.99509

Time = 0.9951

Time = 0.99511

Time = 0.99512

Time = 0.99513

Time = 0.99514

Time = 0.99515

Time = 0.99516

Time = 0.99517

Time = 0.99518

Time = 0.99519

Time = 0.9952

Time = 0.99521

Time = 0.99522

Time = 0.99523

Time = 0.99524

Time = 0.99525

Time = 0.99526

Time = 0.99527

Time = 0.99528

Time = 0.99529

Time = 0.9953

Time = 0.99531

Time = 0.99532

Time = 0.99533

Time = 0.99534

Time = 0.99535

Time = 0.99536

Time = 0.99537

Time = 0.99538

Time = 0.99539

Time = 0.9954

Time = 0.99541

Time = 0.99542

Time = 0.99543

Time = 0.99544

Time = 0.99545

Time = 0.99546

Time = 0.99547

Time = 0.99548

Time = 0.99549

Time = 0.9955

Time = 0.99551

Time = 0.99552

Time = 0.99553

Time = 0.99554

Time = 0.99555

Time = 0.99556

Time = 0.99557

Time = 0.99558

Time = 0.99559

Time = 0.9956

Time = 0.99561

Time = 0.99562

Time = 0.99563

Time = 0.99564

Time = 0.99565

Time = 0.99566

Time = 0.99567

Time = 0.99568

Time = 0.99569

Time = 0.9957

Time = 0.99571

Time = 0.99572

Time = 0.99573

Time = 0.99574

Time = 0.99575

Time = 0.99576

Time = 0.99577

Time = 0.99578

Time = 0.99579

Time = 0.9958

Time = 0.99581

Time = 0.99582

Time = 0.99583

Time = 0.99584

Time = 0.99585

Time = 0.99586

Time = 0.99587

Time = 0.99588

Time = 0.99589

Time = 0.9959

Time = 0.99591

Time = 0.99592

Time = 0.99593

Time = 0.99594

Time = 0.99595

Time = 0.99596

Time = 0.99597

Time = 0.99598

Time = 0.99599

Time = 0.996

Time = 0.99601

Time = 0.99602

Time = 0.99603

Time = 0.99604

Time = 0.99605

Time = 0.99606

Time = 0.99607

Time = 0.99608

Time = 0.99609

Time = 0.9961

Time = 0.99611

Time = 0.99612

Time = 0.99613

Time = 0.99614

Time = 0.99615

Time = 0.99616

Time = 0.99617

Time = 0.99618

Time = 0.99619

Time = 0.9962

Time = 0.99621

Time = 0.99622

Time = 0.99623

Time = 0.99624

Time = 0.99625

Time = 0.99626

Time = 0.99627

Time = 0.99628

Time = 0.99629

Time = 0.9963

Time = 0.99631

Time = 0.99632

Time = 0.99633

Time = 0.99634

Time = 0.99635

Time = 0.99636

Time = 0.99637

Time = 0.99638

Time = 0.99639

Time = 0.9964

Time = 0.99641

Time = 0.99642

Time = 0.99643

Time = 0.99644

Time = 0.99645

Time = 0.99646

Time = 0.99647

Time = 0.99648

Time = 0.99649

Time = 0.9965

Time = 0.99651

Time = 0.99652

Time = 0.99653

Time = 0.99654

Time = 0.99655

Time = 0.99656

Time = 0.99657

Time = 0.99658

Time = 0.99659

Time = 0.9966

Time = 0.99661

Time = 0.99662

Time = 0.99663

Time = 0.99664

Time = 0.99665

Time = 0.99666

Time = 0.99667

Time = 0.99668

Time = 0.99669

Time = 0.9967

Time = 0.99671

Time = 0.99672

Time = 0.99673

Time = 0.99674

Time = 0.99675

Time = 0.99676

Time = 0.99677

Time = 0.99678

Time = 0.99679

Time = 0.9968

Time = 0.99681

Time = 0.99682

Time = 0.99683

Time = 0.99684

Time = 0.99685

Time = 0.99686

Time = 0.99687

Time = 0.99688

Time = 0.99689

Time = 0.9969

Time = 0.99691

Time = 0.99692

Time = 0.99693

Time = 0.99694

Time = 0.99695

Time = 0.99696

Time = 0.99697

Time = 0.99698

Time = 0.99699

Time = 0.997

Time = 0.99701

Time = 0.99702

Time = 0.99703

Time = 0.99704

Time = 0.99705

Time = 0.99706

Time = 0.99707

Time = 0.99708

Time = 0.99709

Time = 0.9971

Time = 0.99711

Time = 0.99712

Time = 0.99713

Time = 0.99714

Time = 0.99715

Time = 0.99716

Time = 0.99717

Time = 0.99718

Time = 0.99719

Time = 0.9972

Time = 0.99721

Time = 0.99722

Time = 0.99723

Time = 0.99724

Time = 0.99725

Time = 0.99726

Time = 0.99727

Time = 0.99728

Time = 0.99729

Time = 0.9973

Time = 0.99731

Time = 0.99732

Time = 0.99733

Time = 0.99734

Time = 0.99735

Time = 0.99736

Time = 0.99737

Time = 0.99738

Time = 0.99739

Time = 0.9974

Time = 0.99741

Time = 0.99742

Time = 0.99743

Time = 0.99744

Time = 0.99745

Time = 0.99746

Time = 0.99747

Time = 0.99748

Time = 0.99749

Time = 0.9975

Time = 0.99751

Time = 0.99752

Time = 0.99753

Time = 0.99754

Time = 0.99755

Time = 0.99756

Time = 0.99757

Time = 0.99758

Time = 0.99759

Time = 0.9976

Time = 0.99761

Time = 0.99762

Time = 0.99763

Time = 0.99764

Time = 0.99765

Time = 0.99766

Time = 0.99767

Time = 0.99768

Time = 0.99769

Time = 0.9977

Time = 0.99771

Time = 0.99772

Time = 0.99773

Time = 0.99774

Time = 0.99775

Time = 0.99776

Time = 0.99777

Time = 0.99778

Time = 0.99779

Time = 0.9978

Time = 0.99781

Time = 0.99782

Time = 0.99783

Time = 0.99784

Time = 0.99785

Time = 0.99786

Time = 0.99787

Time = 0.99788

Time = 0.99789

Time = 0.9979

Time = 0.99791

Time = 0.99792

Time = 0.99793

Time = 0.99794

Time = 0.99795

Time = 0.99796

Time = 0.99797

Time = 0.99798

Time = 0.99799

Time = 0.998

Time = 0.99801

Time = 0.99802

Time = 0.99803

Time = 0.99804

Time = 0.99805

Time = 0.99806

Time = 0.99807

Time = 0.99808

Time = 0.99809

Time = 0.9981

Time = 0.99811

Time = 0.99812

Time = 0.99813

Time = 0.99814

Time = 0.99815

Time = 0.99816

Time = 0.99817

Time = 0.99818

Time = 0.99819

Time = 0.9982

Time = 0.99821

Time = 0.99822

Time = 0.99823

Time = 0.99824

Time = 0.99825

Time = 0.99826

Time = 0.99827

Time = 0.99828

Time = 0.99829

Time = 0.9983

Time = 0.99831

Time = 0.99832

Time = 0.99833

Time = 0.99834

Time = 0.99835

Time = 0.99836

Time = 0.99837

Time = 0.99838

Time = 0.99839

Time = 0.9984

Time = 0.99841

Time = 0.99842

Time = 0.99843

Time = 0.99844

Time = 0.99845

Time = 0.99846

Time = 0.99847

Time = 0.99848

Time = 0.99849

Time = 0.9985

Time = 0.99851

Time = 0.99852

Time = 0.99853

Time = 0.99854

Time = 0.99855

Time = 0.99856

Time = 0.99857

Time = 0.99858

Time = 0.99859

Time = 0.9986

Time = 0.99861

Time = 0.99862

Time = 0.99863

Time = 0.99864

Time = 0.99865

Time = 0.99866

Time = 0.99867

Time = 0.99868

Time = 0.99869

Time = 0.9987

Time = 0.99871

Time = 0.99872

Time = 0.99873

Time = 0.99874

Time = 0.99875

Time = 0.99876

Time = 0.99877

Time = 0.99878

Time = 0.99879

Time = 0.9988

Time = 0.99881

Time = 0.99882

Time = 0.99883

Time = 0.99884

Time = 0.99885

Time = 0.99886

Time = 0.99887

Time = 0.99888

Time = 0.99889

Time = 0.9989

Time = 0.99891

Time = 0.99892

Time = 0.99893

Time = 0.99894

Time = 0.99895

Time = 0.99896

Time = 0.99897

Time = 0.99898

Time = 0.99899

Time = 0.999

Time = 0.99901

Time = 0.99902

Time = 0.99903

Time = 0.99904

Time = 0.99905

Time = 0.99906

Time = 0.99907

Time = 0.99908

Time = 0.99909

Time = 0.9991

Time = 0.99911

Time = 0.99912

Time = 0.99913

Time = 0.99914

Time = 0.99915

Time = 0.99916

Time = 0.99917

Time = 0.99918

Time = 0.99919

Time = 0.9992

Time = 0.99921

Time = 0.99922

Time = 0.99923

Time = 0.99924

Time = 0.99925

Time = 0.99926

Time = 0.99927

Time = 0.99928

Time = 0.99929

Time = 0.9993

Time = 0.99931

Time = 0.99932

Time = 0.99933

Time = 0.99934

Time = 0.99935

Time = 0.99936

Time = 0.99937

Time = 0.99938

Time = 0.99939

Time = 0.9994

Time = 0.99941

Time = 0.99942

Time = 0.99943

Time = 0.99944

Time = 0.99945

Time = 0.99946

Time = 0.99947

Time = 0.99948

Time = 0.99949

Time = 0.9995

Time = 0.99951

Time = 0.99952

Time = 0.99953

Time = 0.99954

Time = 0.99955

Time = 0.99956

Time = 0.99957

Time = 0.99958

Time = 0.99959

Time = 0.9996

Time = 0.99961

Time = 0.99962

Time = 0.99963

Time = 0.99964

Time = 0.99965

Time = 0.99966

Time = 0.99967

Time = 0.99968

Time = 0.99969

Time = 0.9997

Time = 0.99971

Time = 0.99972

Time = 0.99973

Time = 0.99974

Time = 0.99975

Time = 0.99976

Time = 0.99977

Time = 0.99978

Time = 0.99979

Time = 0.9998

Time = 0.99981

Time = 0.99982

Time = 0.99983

Time = 0.99984

Time = 0.99985

Time = 0.99986

Time = 0.99987

Time = 0.99988

Time = 0.99989

Time = 0.9999

Time = 0.99991

Time = 0.99992

Time = 0.99993

Time = 0.99994

Time = 0.99995

Time = 0.99996

Time = 0.99997

Time = 0.99998

Time = 0.99999

Time = 1

ExecutionTime = 0.5 s  ClockTime = 0 s

End
Results written to: "/Users/simaocastro/cardiacFoam/tutorials/singleCell/BuenoOrovio_endocardialCells_S1_1000.txt"
Format: [Time STATES ALGEBRAIC RATES]
