/*---------------------------------------------------------------------------*\
| =========                 |                                                 |
| \\      /  F ield         | OpenFOAM: The Open Source CFD Toolbox           |
|  \\    /   O peration     | Version:  2412                                  |
|   \\  /    A nd           | Website:  www.openfoam.com                      |
|    \\/     M anipulation  |                                                 |
\*---------------------------------------------------------------------------*/
Build  : _8dbc61e11c-20241220 OPENFOAM=2412 version=v2412
Arch   : "LSB;label=32;scalar=64"
Exec   : cardiacFoam -parallel
Date   : Mar 19 2026
Time   : 20:06:52
Host   : macbook
PID    : 85590
I/O    : uncollated
Case   : /Users/simaocastro/cardiacFoamv2/tutorials/manufacturedFDA
nProcs : 6
Hosts  :
(
    (macbook 6)
)
Pstream initialized with:
    floatTransfer      : false
    maxCommsSize       : 0
    nProcsSimpleSum    : 0
    nonBlockingExchange: 0 (tuning: 0)
    exchange algorithm : 0
    commsType          : nonBlocking
    polling iterations : 0
trapFpe: Floating point exception trapping enabled (FOAM_SIGFPE).
fileModificationChecking : Monitoring run-time modified files using timeStampMaster (fileModificationSkew 5, maxFileModificationPolls 20)
allowSystemOperations : Allowing user-supplied system call operations

// * * * * * * * * * * * * * * * * * * * * * * * * * * * * * * * * * * * * * //
Create time

Selecting physicsModel electroModel

Selecting electroModel monoDomainElectro

conductivity not found on disk, using value from "/Users/simaocastro/cardiacFoamv2/tutorials/manufacturedFDA/processor0/../constant/electroProperties/monoDomainElectroCoeffs"

conductivity tensor (cell 0): (0.111453 0 0 0 0.121585 0 0 0 0.0303964)
--> FOAM Warning : 
    From Foam::electroModels::monoDomainElectro::monoDomainElectro(const word &, Time &, const word &)
    in file monoDomainElectro/monoDomainElectro.C at line 322
    Stimulus box index 0 does not contain any mesh cells.
Surface-to-volume ratio chi = chi [0 -1 0 0 0 0 0] 3
Membrane capacitance Cm = Cm [-1 -4 4 0 0 2 0] 2

Using pre/post processor tmanufacturedFDA for ionic model tmanufacturedFDA.
Running preProcess with fields 3(u1 u2 u3).
Selecting ecgModel pseudoECGElectro
ECG conductivity source: monodomain conductivity field

ECG electrodes (5):
  E1  @  (-0.5 0.5 0)
  E2  @  (1.5 0.5 0)
  E3  @  (1.2 0.23 0)
  E4  @  (1.35 0.78 0)
  E5  @  (0.18 1.35 0)

Enabled manufactured pseudo-ECG references: qRef=96, qChecks=(6 12 24 48), dimension=2.
Time = 0.000560538

Solving the mono-domain equation for Vm using an implicit approach
DEBUG cell=0 t=0→0.000560538 step=0.000560538 V=0.487115 u1=1.66112 u2=0.92292 u3=0 Iion=0
Selecting ODE solver RKF45
DEBUG cell=0 t=0→0.000560538 step=0.00504484 V=0.487115 u1=1.66192 u2=0.922403 u3=0 Iion=-1.44489

PIMPLE: no residual control data found. Calculations will employ 2 corrector loops

PIMPLE: iteration 1
DICPCG:  Solving for Vm, Initial residual = 0.000140446, Final residual = 1.4174e-16, No Iterations 6
PIMPLE: iteration 2
DICPCG:  Solving for Vm, Initial residual = 1.59667e-16, Final residual = 1.59667e-16, No Iterations 0
ExecutionTime = 0.01 s  ClockTime = 0 s

Time = 0.00112108

DEBUG cell=0 t=0.000560538→0.00112108 step=0.000560538 V=0.487252 u1=1.66192 u2=0.922403 u3=0 Iion=-1.44489
DEBUG cell=0 t=0.000560538→0.00112108 step=0.00504484 V=0.487252 u1=1.66271 u2=0.921887 u3=0 Iion=-1.44502
PIMPLE: iteration 1
DICPCG:  Solving for Vm, Initial residual = 0.000140381, Final residual = 9.41185e-16, No Iterations 5
PIMPLE: iteration 2
DICPCG:  Solving for Vm, Initial residual = 9.4762e-16, Final residual = 9.4762e-16, No Iterations 0
ExecutionTime = 0.01 s  ClockTime = 0 s

Time = 0.00168161

DEBUG cell=0 t=0.00112108→0.00168161 step=0.000560538 V=0.487389 u1=1.66271 u2=0.921887 u3=0 Iion=-1.44502
DEBUG cell=0 t=0.00112108→0.00168161 step=0.00504484 V=0.487389 u1=1.66351 u2=0.921371 u3=0 Iion=-1.44516
PIMPLE: iteration 1
DICPCG:  Solving for Vm, Initial residual = 0.000140307, Final residual = 9.40689e-16, No Iterations 5
PIMPLE: iteration 2
DICPCG:  Solving for Vm, Initial residual = 9.41932e-16, Final residual = 9.41932e-16, No Iterations 0
ExecutionTime = 0.01 s  ClockTime = 0 s

Time = 0.00224215

DEBUG cell=0 t=0.00168161→0.00224215 step=0.000560538 V=0.487525 u1=1.66351 u2=0.921371 u3=0 Iion=-1.44516
DEBUG cell=0 t=0.00168161→0.00224215 step=0.00504484 V=0.487525 u1=1.6643 u2=0.920855 u3=0 Iion=-1.44529
PIMPLE: iteration 1
DICPCG:  Solving for Vm, Initial residual = 0.00014023, Final residual = 9.40174e-16, No Iterations 5
PIMPLE: iteration 2
DICPCG:  Solving for Vm, Initial residual = 9.43805e-16, Final residual = 9.43805e-16, No Iterations 0
ExecutionTime = 0.01 s  ClockTime = 0 s

Time = 0.00280269

DEBUG cell=0 t=0.00224215→0.00280269 step=0.000560538 V=0.487662 u1=1.6643 u2=0.920855 u3=0 Iion=-1.44529
DEBUG cell=0 t=0.00224215→0.00280269 step=0.00504484 V=0.487662 u1=1.6651 u2=0.920341 u3=0 Iion=-1.44542
PIMPLE: iteration 1
DICPCG:  Solving for Vm, Initial residual = 0.000140152, Final residual = 9.39654e-16, No Iterations 5
PIMPLE: iteration 2
DICPCG:  Solving for Vm, Initial residual = 9.4188e-16, Final residual = 9.4188e-16, No Iterations 0
ExecutionTime = 0.01 s  ClockTime = 0 s

Time = 0.00336323

DEBUG cell=0 t=0.00280269→0.00336323 step=0.000560538 V=0.487799 u1=1.6651 u2=0.920341 u3=0 Iion=-1.44542
DEBUG cell=0 t=0.00280269→0.00336323 step=0.00504484 V=0.487799 u1=1.66589 u2=0.919826 u3=0 Iion=-1.44556
PIMPLE: iteration 1
DICPCG:  Solving for Vm, Initial residual = 0.000140075, Final residual = 9.39132e-16, No Iterations 5
PIMPLE: iteration 2
DICPCG:  Solving for Vm, Initial residual = 9.41446e-16, Final residual = 9.41446e-16, No Iterations 0
ExecutionTime = 0.01 s  ClockTime = 0 s

Time = 0.00392377

DEBUG cell=0 t=0.00336323→0.00392377 step=0.000560538 V=0.487936 u1=1.66589 u2=0.919826 u3=0 Iion=-1.44556
DEBUG cell=0 t=0.00336323→0.00392377 step=0.00504484 V=0.487936 u1=1.66669 u2=0.919313 u3=0 Iion=-1.44569
PIMPLE: iteration 1
DICPCG:  Solving for Vm, Initial residual = 0.000139997, Final residual = 9.3861e-16, No Iterations 5
PIMPLE: iteration 2
DICPCG:  Solving for Vm, Initial residual = 9.39713e-16, Final residual = 9.39713e-16, No Iterations 0
ExecutionTime = 0.01 s  ClockTime = 0 s

Time = 0.0044843

DEBUG cell=0 t=0.00392377→0.0044843 step=0.000560538 V=0.488072 u1=1.66669 u2=0.919313 u3=0 Iion=-1.44569
DEBUG cell=0 t=0.00392377→0.0044843 step=0.00504484 V=0.488072 u1=1.66748 u2=0.9188 u3=0 Iion=-1.44582
PIMPLE: iteration 1
DICPCG:  Solving for Vm, Initial residual = 0.000139919, Final residual = 9.38088e-16, No Iterations 5
PIMPLE: iteration 2
DICPCG:  Solving for Vm, Initial residual = 9.4124e-16, Final residual = 9.4124e-16, No Iterations 0
ExecutionTime = 0.01 s  ClockTime = 0 s

Time = 0.00504484

DEBUG cell=0 t=0.0044843→0.00504484 step=0.000560538 V=0.488209 u1=1.66748 u2=0.9188 u3=0 Iion=-1.44582
DEBUG cell=0 t=0.0044843→0.00504484 step=0.00504484 V=0.488209 u1=1.66828 u2=0.918287 u3=0 Iion=-1.44596
PIMPLE: iteration 1
DICPCG:  Solving for Vm, Initial residual = 0.000139841, Final residual = 9.37567e-16, No Iterations 5
PIMPLE: iteration 2
DICPCG:  Solving for Vm, Initial residual = 9.41177e-16, Final residual = 9.41177e-16, No Iterations 0
ExecutionTime = 0.01 s  ClockTime = 0 s

Time = 0.00560538

DEBUG cell=0 t=0.00504484→0.00560538 step=0.000560538 V=0.488346 u1=1.66828 u2=0.918287 u3=0 Iion=-1.44596
DEBUG cell=0 t=0.00504484→0.00560538 step=0.00504484 V=0.488346 u1=1.66907 u2=0.917775 u3=0 Iion=-1.44609
PIMPLE: iteration 1
DICPCG:  Solving for Vm, Initial residual = 0.000139763, Final residual = 9.37046e-16, No Iterations 5
PIMPLE: iteration 2
DICPCG:  Solving for Vm, Initial residual = 9.37013e-16, Final residual = 9.37013e-16, No Iterations 0
ExecutionTime = 0.01 s  ClockTime = 0 s

Time = 0.00616592

DEBUG cell=0 t=0.00560538→0.00616592 step=0.000560538 V=0.488482 u1=1.66907 u2=0.917775 u3=0 Iion=-1.44609
DEBUG cell=0 t=0.00560538→0.00616592 step=0.00504484 V=0.488482 u1=1.66986 u2=0.917264 u3=0 Iion=-1.44622
PIMPLE: iteration 1
DICPCG:  Solving for Vm, Initial residual = 0.000139686, Final residual = 9.36526e-16, No Iterations 5
PIMPLE: iteration 2
DICPCG:  Solving for Vm, Initial residual = 9.36685e-16, Final residual = 9.36685e-16, No Iterations 0
ExecutionTime = 0.01 s  ClockTime = 0 s

Time = 0.00672646

DEBUG cell=0 t=0.00616592→0.00672646 step=0.000560538 V=0.488619 u1=1.66986 u2=0.917264 u3=0 Iion=-1.44622
DEBUG cell=0 t=0.00616592→0.00672646 step=0.00504484 V=0.488619 u1=1.67066 u2=0.916753 u3=0 Iion=-1.44636
PIMPLE: iteration 1
DICPCG:  Solving for Vm, Initial residual = 0.000139608, Final residual = 9.36006e-16, No Iterations 5
PIMPLE: iteration 2
DICPCG:  Solving for Vm, Initial residual = 9.35079e-16, Final residual = 9.35079e-16, No Iterations 0
ExecutionTime = 0.01 s  ClockTime = 0 s

Time = 0.00728699

DEBUG cell=0 t=0.00672646→0.00728699 step=0.000560538 V=0.488755 u1=1.67066 u2=0.916753 u3=0 Iion=-1.44636
DEBUG cell=0 t=0.00672646→0.00728699 step=0.00504484 V=0.488755 u1=1.67145 u2=0.916243 u3=0 Iion=-1.44649
PIMPLE: iteration 1
DICPCG:  Solving for Vm, Initial residual = 0.000139531, Final residual = 9.35487e-16, No Iterations 5
PIMPLE: iteration 2
DICPCG:  Solving for Vm, Initial residual = 9.3938e-16, Final residual = 9.3938e-16, No Iterations 0
ExecutionTime = 0.01 s  ClockTime = 0 s

Time = 0.00784753

DEBUG cell=0 t=0.00728699→0.00784753 step=0.000560538 V=0.488891 u1=1.67145 u2=0.916243 u3=0 Iion=-1.44649
DEBUG cell=0 t=0.00728699→0.00784753 step=0.00504484 V=0.488891 u1=1.67225 u2=0.915734 u3=0 Iion=-1.44662
PIMPLE: iteration 1
DICPCG:  Solving for Vm, Initial residual = 0.000139454, Final residual = 9.34969e-16, No Iterations 5
PIMPLE: iteration 2
DICPCG:  Solving for Vm, Initial residual = 9.37214e-16, Final residual = 9.37214e-16, No Iterations 0
ExecutionTime = 0.01 s  ClockTime = 0 s

Time = 0.00840807

DEBUG cell=0 t=0.00784753→0.00840807 step=0.000560538 V=0.489028 u1=1.67225 u2=0.915734 u3=0 Iion=-1.44662
DEBUG cell=0 t=0.00784753→0.00840807 step=0.00504484 V=0.489028 u1=1.67304 u2=0.915224 u3=0 Iion=-1.44676
PIMPLE: iteration 1
DICPCG:  Solving for Vm, Initial residual = 0.000139376, Final residual = 9.34451e-16, No Iterations 5
PIMPLE: iteration 2
DICPCG:  Solving for Vm, Initial residual = 9.41034e-16, Final residual = 9.41034e-16, No Iterations 0
ExecutionTime = 0.01 s  ClockTime = 0 s

Time = 0.00896861

DEBUG cell=0 t=0.00840807→0.00896861 step=0.000560538 V=0.489164 u1=1.67304 u2=0.915224 u3=0 Iion=-1.44676
DEBUG cell=0 t=0.00840807→0.00896861 step=0.00504484 V=0.489164 u1=1.67383 u2=0.914716 u3=0 Iion=-1.44689
PIMPLE: iteration 1
DICPCG:  Solving for Vm, Initial residual = 0.000139299, Final residual = 9.33934e-16, No Iterations 5
PIMPLE: iteration 2
DICPCG:  Solving for Vm, Initial residual = 9.34872e-16, Final residual = 9.34872e-16, No Iterations 0
ExecutionTime = 0.01 s  ClockTime = 0 s

Time = 0.00952915

DEBUG cell=0 t=0.00896861→0.00952915 step=0.000560538 V=0.489301 u1=1.67383 u2=0.914716 u3=0 Iion=-1.44689
DEBUG cell=0 t=0.00896861→0.00952915 step=0.00504484 V=0.489301 u1=1.67463 u2=0.914208 u3=0 Iion=-1.44703
PIMPLE: iteration 1
DICPCG:  Solving for Vm, Initial residual = 0.000139222, Final residual = 9.33417e-16, No Iterations 5
PIMPLE: iteration 2
DICPCG:  Solving for Vm, Initial residual = 9.34113e-16, Final residual = 9.34113e-16, No Iterations 0
ExecutionTime = 0.01 s  ClockTime = 0 s

Time = 0.0100897

DEBUG cell=0 t=0.00952915→0.0100897 step=0.000560538 V=0.489437 u1=1.67463 u2=0.914208 u3=0 Iion=-1.44703
DEBUG cell=0 t=0.00952915→0.0100897 step=0.00504484 V=0.489437 u1=1.67542 u2=0.913701 u3=0 Iion=-1.44716
PIMPLE: iteration 1
DICPCG:  Solving for Vm, Initial residual = 0.000139145, Final residual = 9.32901e-16, No Iterations 5
PIMPLE: iteration 2
DICPCG:  Solving for Vm, Initial residual = 9.37044e-16, Final residual = 9.37044e-16, No Iterations 0
ExecutionTime = 0.01 s  ClockTime = 0 s

Time = 0.0106502

DEBUG cell=0 t=0.0100897→0.0106502 step=0.000560538 V=0.489573 u1=1.67542 u2=0.913701 u3=0 Iion=-1.44716
DEBUG cell=0 t=0.0100897→0.0106502 step=0.00504484 V=0.489573 u1=1.67622 u2=0.913194 u3=0 Iion=-1.44729
PIMPLE: iteration 1
DICPCG:  Solving for Vm, Initial residual = 0.000139068, Final residual = 9.32385e-16, No Iterations 5
PIMPLE: iteration 2
DICPCG:  Solving for Vm, Initial residual = 9.3384e-16, Final residual = 9.3384e-16, No Iterations 0
ExecutionTime = 0.01 s  ClockTime = 0 s

Time = 0.0112108

DEBUG cell=0 t=0.0106502→0.0112108 step=0.000560538 V=0.489709 u1=1.67622 u2=0.913194 u3=0 Iion=-1.44729
DEBUG cell=0 t=0.0106502→0.0112108 step=0.00504484 V=0.489709 u1=1.67701 u2=0.912688 u3=0 Iion=-1.44743
PIMPLE: iteration 1
DICPCG:  Solving for Vm, Initial residual = 0.000138991, Final residual = 9.3187e-16, No Iterations 5
PIMPLE: iteration 2
DICPCG:  Solving for Vm, Initial residual = 9.35062e-16, Final residual = 9.35062e-16, No Iterations 0
ExecutionTime = 0.01 s  ClockTime = 0 s

Time = 0.0117713

DEBUG cell=0 t=0.0112108→0.0117713 step=0.000560538 V=0.489845 u1=1.67701 u2=0.912688 u3=0 Iion=-1.44743
DEBUG cell=0 t=0.0112108→0.0117713 step=0.00504484 V=0.489845 u1=1.6778 u2=0.912182 u3=0 Iion=-1.44756
PIMPLE: iteration 1
DICPCG:  Solving for Vm, Initial residual = 0.000138915, Final residual = 9.31356e-16, No Iterations 5
PIMPLE: iteration 2
DICPCG:  Solving for Vm, Initial residual = 9.30604e-16, Final residual = 9.30604e-16, No Iterations 0
ExecutionTime = 0.01 s  ClockTime = 0 s

Time = 0.0123318

DEBUG cell=0 t=0.0117713→0.0123318 step=0.000560538 V=0.489982 u1=1.6778 u2=0.912182 u3=0 Iion=-1.44756
DEBUG cell=0 t=0.0117713→0.0123318 step=0.00504484 V=0.489982 u1=1.6786 u2=0.911677 u3=0 Iion=-1.4477
PIMPLE: iteration 1
DICPCG:  Solving for Vm, Initial residual = 0.000138838, Final residual = 9.30842e-16, No Iterations 5
PIMPLE: iteration 2
DICPCG:  Solving for Vm, Initial residual = 9.28493e-16, Final residual = 9.28493e-16, No Iterations 0
ExecutionTime = 0.01 s  ClockTime = 0 s

Time = 0.0128924

DEBUG cell=0 t=0.0123318→0.0128924 step=0.000560538 V=0.490118 u1=1.6786 u2=0.911677 u3=0 Iion=-1.4477
DEBUG cell=0 t=0.0123318→0.0128924 step=0.00504484 V=0.490118 u1=1.67939 u2=0.911172 u3=0 Iion=-1.44783
PIMPLE: iteration 1
DICPCG:  Solving for Vm, Initial residual = 0.000138761, Final residual = 9.30329e-16, No Iterations 5
PIMPLE: iteration 2
DICPCG:  Solving for Vm, Initial residual = 9.3514e-16, Final residual = 9.3514e-16, No Iterations 0
ExecutionTime = 0.01 s  ClockTime = 0 s

Time = 0.0134529

DEBUG cell=0 t=0.0128924→0.0134529 step=0.000560538 V=0.490254 u1=1.67939 u2=0.911172 u3=0 Iion=-1.44783
DEBUG cell=0 t=0.0128924→0.0134529 step=0.00504484 V=0.490254 u1=1.68019 u2=0.910668 u3=0 Iion=-1.44796
PIMPLE: iteration 1
DICPCG:  Solving for Vm, Initial residual = 0.000138685, Final residual = 9.29816e-16, No Iterations 5
PIMPLE: iteration 2
DICPCG:  Solving for Vm, Initial residual = 9.32385e-16, Final residual = 9.32385e-16, No Iterations 0
ExecutionTime = 0.01 s  ClockTime = 0 s

Time = 0.0140134

DEBUG cell=0 t=0.0134529→0.0140134 step=0.000560538 V=0.49039 u1=1.68019 u2=0.910668 u3=0 Iion=-1.44796
DEBUG cell=0 t=0.0134529→0.0140134 step=0.00504484 V=0.49039 u1=1.68098 u2=0.910165 u3=0 Iion=-1.4481
PIMPLE: iteration 1
DICPCG:  Solving for Vm, Initial residual = 0.000138608, Final residual = 9.29304e-16, No Iterations 5
PIMPLE: iteration 2
DICPCG:  Solving for Vm, Initial residual = 9.28789e-16, Final residual = 9.28789e-16, No Iterations 0
ExecutionTime = 0.01 s  ClockTime = 0 s

Time = 0.014574

DEBUG cell=0 t=0.0140134→0.014574 step=0.000560538 V=0.490526 u1=1.68098 u2=0.910165 u3=0 Iion=-1.4481
DEBUG cell=0 t=0.0140134→0.014574 step=0.00504484 V=0.490526 u1=1.68177 u2=0.909662 u3=0 Iion=-1.44823
PIMPLE: iteration 1
DICPCG:  Solving for Vm, Initial residual = 0.000138532, Final residual = 9.28792e-16, No Iterations 5
PIMPLE: iteration 2
DICPCG:  Solving for Vm, Initial residual = 9.33598e-16, Final residual = 9.33598e-16, No Iterations 0
ExecutionTime = 0.02 s  ClockTime = 0 s

Time = 0.0151345

DEBUG cell=0 t=0.014574→0.0151345 step=0.000560538 V=0.490662 u1=1.68177 u2=0.909662 u3=0 Iion=-1.44823
DEBUG cell=0 t=0.014574→0.0151345 step=0.00504484 V=0.490662 u1=1.68257 u2=0.90916 u3=0 Iion=-1.44837
PIMPLE: iteration 1
DICPCG:  Solving for Vm, Initial residual = 0.000138456, Final residual = 9.28281e-16, No Iterations 5
PIMPLE: iteration 2
DICPCG:  Solving for Vm, Initial residual = 9.32371e-16, Final residual = 9.32371e-16, No Iterations 0
ExecutionTime = 0.02 s  ClockTime = 0 s

Time = 0.0156951

DEBUG cell=0 t=0.0151345→0.0156951 step=0.000560538 V=0.490797 u1=1.68257 u2=0.90916 u3=0 Iion=-1.44837
DEBUG cell=0 t=0.0151345→0.0156951 step=0.00504484 V=0.490797 u1=1.68336 u2=0.908658 u3=0 Iion=-1.4485
PIMPLE: iteration 1
DICPCG:  Solving for Vm, Initial residual = 0.00013838, Final residual = 9.27771e-16, No Iterations 5
PIMPLE: iteration 2
DICPCG:  Solving for Vm, Initial residual = 9.284e-16, Final residual = 9.284e-16, No Iterations 0
ExecutionTime = 0.02 s  ClockTime = 0 s

Time = 0.0162556

DEBUG cell=0 t=0.0156951→0.0162556 step=0.000560538 V=0.490933 u1=1.68336 u2=0.908658 u3=0 Iion=-1.4485
DEBUG cell=0 t=0.0156951→0.0162556 step=0.00504484 V=0.490933 u1=1.68415 u2=0.908157 u3=0 Iion=-1.44863
PIMPLE: iteration 1
DICPCG:  Solving for Vm, Initial residual = 0.000138304, Final residual = 9.27261e-16, No Iterations 5
PIMPLE: iteration 2
DICPCG:  Solving for Vm, Initial residual = 9.33288e-16, Final residual = 9.33288e-16, No Iterations 0
ExecutionTime = 0.02 s  ClockTime = 0 s

Time = 0.0168161

DEBUG cell=0 t=0.0162556→0.0168161 step=0.000560538 V=0.491069 u1=1.68415 u2=0.908157 u3=0 Iion=-1.44863
DEBUG cell=0 t=0.0162556→0.0168161 step=0.00504484 V=0.491069 u1=1.68495 u2=0.907656 u3=0 Iion=-1.44877
PIMPLE: iteration 1
DICPCG:  Solving for Vm, Initial residual = 0.000138228, Final residual = 9.26752e-16, No Iterations 5
PIMPLE: iteration 2
DICPCG:  Solving for Vm, Initial residual = 9.28259e-16, Final residual = 9.28259e-16, No Iterations 0
ExecutionTime = 0.02 s  ClockTime = 0 s

Time = 0.0173767

DEBUG cell=0 t=0.0168161→0.0173767 step=0.000560538 V=0.491205 u1=1.68495 u2=0.907656 u3=0 Iion=-1.44877
DEBUG cell=0 t=0.0168161→0.0173767 step=0.00504484 V=0.491205 u1=1.68574 u2=0.907156 u3=0 Iion=-1.4489
PIMPLE: iteration 1
DICPCG:  Solving for Vm, Initial residual = 0.000138152, Final residual = 9.26243e-16, No Iterations 5
PIMPLE: iteration 2
DICPCG:  Solving for Vm, Initial residual = 9.31587e-16, Final residual = 9.31587e-16, No Iterations 0
ExecutionTime = 0.02 s  ClockTime = 0 s

Time = 0.0179372

DEBUG cell=0 t=0.0173767→0.0179372 step=0.000560538 V=0.491341 u1=1.68574 u2=0.907156 u3=0 Iion=-1.4489
DEBUG cell=0 t=0.0173767→0.0179372 step=0.00504484 V=0.491341 u1=1.68653 u2=0.906656 u3=0 Iion=-1.44904
PIMPLE: iteration 1
DICPCG:  Solving for Vm, Initial residual = 0.000138076, Final residual = 9.25735e-16, No Iterations 5
PIMPLE: iteration 2
DICPCG:  Solving for Vm, Initial residual = 9.27392e-16, Final residual = 9.27392e-16, No Iterations 0
ExecutionTime = 0.02 s  ClockTime = 0 s

Time = 0.0184978

DEBUG cell=0 t=0.0179372→0.0184978 step=0.000560538 V=0.491476 u1=1.68653 u2=0.906656 u3=0 Iion=-1.44904
DEBUG cell=0 t=0.0179372→0.0184978 step=0.00504484 V=0.491476 u1=1.68733 u2=0.906157 u3=0 Iion=-1.44917
PIMPLE: iteration 1
DICPCG:  Solving for Vm, Initial residual = 0.000138, Final residual = 9.25227e-16, No Iterations 5
PIMPLE: iteration 2
DICPCG:  Solving for Vm, Initial residual = 9.28599e-16, Final residual = 9.28599e-16, No Iterations 0
ExecutionTime = 0.02 s  ClockTime = 0 s

Time = 0.0190583

DEBUG cell=0 t=0.0184978→0.0190583 step=0.000560538 V=0.491612 u1=1.68733 u2=0.906157 u3=0 Iion=-1.44917
DEBUG cell=0 t=0.0184978→0.0190583 step=0.00504484 V=0.491612 u1=1.68812 u2=0.905659 u3=0 Iion=-1.4493
PIMPLE: iteration 1
DICPCG:  Solving for Vm, Initial residual = 0.000137925, Final residual = 9.2472e-16, No Iterations 5
PIMPLE: iteration 2
DICPCG:  Solving for Vm, Initial residual = 9.27753e-16, Final residual = 9.27753e-16, No Iterations 0
ExecutionTime = 0.02 s  ClockTime = 0 s

Time = 0.0196188

DEBUG cell=0 t=0.0190583→0.0196188 step=0.000560538 V=0.491748 u1=1.68812 u2=0.905659 u3=0 Iion=-1.4493
DEBUG cell=0 t=0.0190583→0.0196188 step=0.00504484 V=0.491748 u1=1.68891 u2=0.905161 u3=0 Iion=-1.44944
PIMPLE: iteration 1
DICPCG:  Solving for Vm, Initial residual = 0.000137849, Final residual = 9.24214e-16, No Iterations 5
PIMPLE: iteration 2
DICPCG:  Solving for Vm, Initial residual = 9.26605e-16, Final residual = 9.26605e-16, No Iterations 0
ExecutionTime = 0.02 s  ClockTime = 0 s

Time = 0.0201794

DEBUG cell=0 t=0.0196188→0.0201794 step=0.000560538 V=0.491883 u1=1.68891 u2=0.905161 u3=0 Iion=-1.44944
DEBUG cell=0 t=0.0196188→0.0201794 step=0.00504484 V=0.491883 u1=1.68971 u2=0.904664 u3=0 Iion=-1.44957
PIMPLE: iteration 1
DICPCG:  Solving for Vm, Initial residual = 0.000137774, Final residual = 9.23708e-16, No Iterations 5
PIMPLE: iteration 2
DICPCG:  Solving for Vm, Initial residual = 9.26747e-16, Final residual = 9.26747e-16, No Iterations 0
ExecutionTime = 0.02 s  ClockTime = 0 s

Time = 0.0207399

DEBUG cell=0 t=0.0201794→0.0207399 step=0.000560538 V=0.492019 u1=1.68971 u2=0.904664 u3=0 Iion=-1.44957
DEBUG cell=0 t=0.0201794→0.0207399 step=0.00504484 V=0.492019 u1=1.6905 u2=0.904167 u3=0 Iion=-1.44971
PIMPLE: iteration 1
DICPCG:  Solving for Vm, Initial residual = 0.000137698, Final residual = 9.23202e-16, No Iterations 5
PIMPLE: iteration 2
DICPCG:  Solving for Vm, Initial residual = 9.25994e-16, Final residual = 9.25994e-16, No Iterations 0
ExecutionTime = 0.02 s  ClockTime = 0 s

Time = 0.0213004

DEBUG cell=0 t=0.0207399→0.0213004 step=0.000560538 V=0.492154 u1=1.6905 u2=0.904167 u3=0 Iion=-1.44971
DEBUG cell=0 t=0.0207399→0.0213004 step=0.00504484 V=0.492154 u1=1.69129 u2=0.903671 u3=0 Iion=-1.44984
PIMPLE: iteration 1
DICPCG:  Solving for Vm, Initial residual = 0.000137623, Final residual = 9.22697e-16, No Iterations 5
PIMPLE: iteration 2
DICPCG:  Solving for Vm, Initial residual = 9.26359e-16, Final residual = 9.26359e-16, No Iterations 0
ExecutionTime = 0.02 s  ClockTime = 0 s

Time = 0.021861

DEBUG cell=0 t=0.0213004→0.021861 step=0.000560538 V=0.49229 u1=1.69129 u2=0.903671 u3=0 Iion=-1.44984
DEBUG cell=0 t=0.0213004→0.021861 step=0.00504484 V=0.49229 u1=1.69209 u2=0.903175 u3=0 Iion=-1.44998
PIMPLE: iteration 1
DICPCG:  Solving for Vm, Initial residual = 0.000137548, Final residual = 9.22193e-16, No Iterations 5
PIMPLE: iteration 2
DICPCG:  Solving for Vm, Initial residual = 9.24292e-16, Final residual = 9.24292e-16, No Iterations 0
ExecutionTime = 0.02 s  ClockTime = 0 s

Time = 0.0224215

DEBUG cell=0 t=0.021861→0.0224215 step=0.000560538 V=0.492425 u1=1.69209 u2=0.903175 u3=0 Iion=-1.44998
DEBUG cell=0 t=0.021861→0.0224215 step=0.00504484 V=0.492425 u1=1.69288 u2=0.90268 u3=0 Iion=-1.45011
PIMPLE: iteration 1
DICPCG:  Solving for Vm, Initial residual = 0.000137473, Final residual = 9.21689e-16, No Iterations 5
PIMPLE: iteration 2
DICPCG:  Solving for Vm, Initial residual = 9.2429e-16, Final residual = 9.2429e-16, No Iterations 0
ExecutionTime = 0.02 s  ClockTime = 0 s

Time = 0.0229821

DEBUG cell=0 t=0.0224215→0.0229821 step=0.000560538 V=0.492561 u1=1.69288 u2=0.90268 u3=0 Iion=-1.45011
DEBUG cell=0 t=0.0224215→0.0229821 step=0.00504484 V=0.492561 u1=1.69367 u2=0.902185 u3=0 Iion=-1.45025
PIMPLE: iteration 1
DICPCG:  Solving for Vm, Initial residual = 0.000137398, Final residual = 9.21186e-16, No Iterations 5
PIMPLE: iteration 2
DICPCG:  Solving for Vm, Initial residual = 9.25472e-16, Final residual = 9.25472e-16, No Iterations 0
ExecutionTime = 0.02 s  ClockTime = 0 s

Time = 0.0235426

DEBUG cell=0 t=0.0229821→0.0235426 step=0.000560538 V=0.492696 u1=1.69367 u2=0.902185 u3=0 Iion=-1.45025
DEBUG cell=0 t=0.0229821→0.0235426 step=0.00504484 V=0.492696 u1=1.69447 u2=0.901691 u3=0 Iion=-1.45038
PIMPLE: iteration 1
DICPCG:  Solving for Vm, Initial residual = 0.000137323, Final residual = 9.20683e-16, No Iterations 5
PIMPLE: iteration 2
DICPCG:  Solving for Vm, Initial residual = 9.23795e-16, Final residual = 9.23795e-16, No Iterations 0
ExecutionTime = 0.02 s  ClockTime = 0 s

Time = 0.0241031

DEBUG cell=0 t=0.0235426→0.0241031 step=0.000560538 V=0.492832 u1=1.69447 u2=0.901691 u3=0 Iion=-1.45038
DEBUG cell=0 t=0.0235426→0.0241031 step=0.00504484 V=0.492832 u1=1.69526 u2=0.901197 u3=0 Iion=-1.45052
PIMPLE: iteration 1
DICPCG:  Solving for Vm, Initial residual = 0.000137248, Final residual = 9.20181e-16, No Iterations 5
PIMPLE: iteration 2
DICPCG:  Solving for Vm, Initial residual = 9.24592e-16, Final residual = 9.24592e-16, No Iterations 0
ExecutionTime = 0.02 s  ClockTime = 0 s

Time = 0.0246637

DEBUG cell=0 t=0.0241031→0.0246637 step=0.000560538 V=0.492967 u1=1.69526 u2=0.901197 u3=0 Iion=-1.45052
DEBUG cell=0 t=0.0241031→0.0246637 step=0.00504484 V=0.492967 u1=1.69605 u2=0.900704 u3=0 Iion=-1.45065
PIMPLE: iteration 1
DICPCG:  Solving for Vm, Initial residual = 0.000137173, Final residual = 9.1968e-16, No Iterations 5
PIMPLE: iteration 2
DICPCG:  Solving for Vm, Initial residual = 9.22092e-16, Final residual = 9.22092e-16, No Iterations 0
ExecutionTime = 0.02 s  ClockTime = 0 s

Time = 0.0252242

DEBUG cell=0 t=0.0246637→0.0252242 step=0.000560538 V=0.493102 u1=1.69605 u2=0.900704 u3=0 Iion=-1.45065
DEBUG cell=0 t=0.0246637→0.0252242 step=0.00504484 V=0.493102 u1=1.69685 u2=0.900212 u3=0 Iion=-1.45078
PIMPLE: iteration 1
DICPCG:  Solving for Vm, Initial residual = 0.000137098, Final residual = 9.19179e-16, No Iterations 5
PIMPLE: iteration 2
DICPCG:  Solving for Vm, Initial residual = 9.20267e-16, Final residual = 9.20267e-16, No Iterations 0
ExecutionTime = 0.02 s  ClockTime = 0 s

Time = 0.0257847

DEBUG cell=0 t=0.0252242→0.0257847 step=0.000560538 V=0.493237 u1=1.69685 u2=0.900212 u3=0 Iion=-1.45078
DEBUG cell=0 t=0.0252242→0.0257847 step=0.00504484 V=0.493237 u1=1.69764 u2=0.89972 u3=0 Iion=-1.45092
PIMPLE: iteration 1
DICPCG:  Solving for Vm, Initial residual = 0.000137023, Final residual = 9.18678e-16, No Iterations 5
PIMPLE: iteration 2
DICPCG:  Solving for Vm, Initial residual = 9.23194e-16, Final residual = 9.23194e-16, No Iterations 0
ExecutionTime = 0.02 s  ClockTime = 0 s

Time = 0.0263453

DEBUG cell=0 t=0.0257847→0.0263453 step=0.000560538 V=0.493373 u1=1.69764 u2=0.89972 u3=0 Iion=-1.45092
DEBUG cell=0 t=0.0257847→0.0263453 step=0.00504484 V=0.493373 u1=1.69843 u2=0.899229 u3=0 Iion=-1.45105
PIMPLE: iteration 1
DICPCG:  Solving for Vm, Initial residual = 0.000136949, Final residual = 9.18178e-16, No Iterations 5
PIMPLE: iteration 2
DICPCG:  Solving for Vm, Initial residual = 9.22153e-16, Final residual = 9.22153e-16, No Iterations 0
ExecutionTime = 0.02 s  ClockTime = 0 s

Time = 0.0269058

DEBUG cell=0 t=0.0263453→0.0269058 step=0.000560538 V=0.493508 u1=1.69843 u2=0.899229 u3=0 Iion=-1.45105
DEBUG cell=0 t=0.0263453→0.0269058 step=0.00504484 V=0.493508 u1=1.69922 u2=0.898738 u3=0 Iion=-1.45119
PIMPLE: iteration 1
DICPCG:  Solving for Vm, Initial residual = 0.000136874, Final residual = 9.17679e-16, No Iterations 5
PIMPLE: iteration 2
DICPCG:  Solving for Vm, Initial residual = 9.19945e-16, Final residual = 9.19945e-16, No Iterations 0
ExecutionTime = 0.02 s  ClockTime = 0 s

Time = 0.0274664

DEBUG cell=0 t=0.0269058→0.0274664 step=0.000560538 V=0.493643 u1=1.69922 u2=0.898738 u3=0 Iion=-1.45119
DEBUG cell=0 t=0.0269058→0.0274664 step=0.00504484 V=0.493643 u1=1.70002 u2=0.898247 u3=0 Iion=-1.45132
PIMPLE: iteration 1
DICPCG:  Solving for Vm, Initial residual = 0.0001368, Final residual = 9.1718e-16, No Iterations 5
PIMPLE: iteration 2
DICPCG:  Solving for Vm, Initial residual = 9.2014e-16, Final residual = 9.2014e-16, No Iterations 0
ExecutionTime = 0.02 s  ClockTime = 0 s

Time = 0.0280269

DEBUG cell=0 t=0.0274664→0.0280269 step=0.000560538 V=0.493778 u1=1.70002 u2=0.898247 u3=0 Iion=-1.45132
DEBUG cell=0 t=0.0274664→0.0280269 step=0.00504484 V=0.493778 u1=1.70081 u2=0.897758 u3=0 Iion=-1.45146
PIMPLE: iteration 1
DICPCG:  Solving for Vm, Initial residual = 0.000136726, Final residual = 9.16682e-16, No Iterations 5
PIMPLE: iteration 2
DICPCG:  Solving for Vm, Initial residual = 9.18393e-16, Final residual = 9.18393e-16, No Iterations 0
ExecutionTime = 0.02 s  ClockTime = 0 s

Time = 0.0285874

DEBUG cell=0 t=0.0280269→0.0285874 step=0.000560538 V=0.493913 u1=1.70081 u2=0.897758 u3=0 Iion=-1.45146
DEBUG cell=0 t=0.0280269→0.0285874 step=0.00504484 V=0.493913 u1=1.7016 u2=0.897268 u3=0 Iion=-1.45159
PIMPLE: iteration 1
DICPCG:  Solving for Vm, Initial residual = 0.000136651, Final residual = 9.16184e-16, No Iterations 5
PIMPLE: iteration 2
DICPCG:  Solving for Vm, Initial residual = 9.20586e-16, Final residual = 9.20586e-16, No Iterations 0
ExecutionTime = 0.02 s  ClockTime = 0 s

Time = 0.029148

DEBUG cell=0 t=0.0285874→0.029148 step=0.000560538 V=0.494048 u1=1.7016 u2=0.897268 u3=0 Iion=-1.45159
DEBUG cell=0 t=0.0285874→0.029148 step=0.00504484 V=0.494048 u1=1.7024 u2=0.89678 u3=0 Iion=-1.45173
PIMPLE: iteration 1
DICPCG:  Solving for Vm, Initial residual = 0.000136577, Final residual = 9.15687e-16, No Iterations 5
PIMPLE: iteration 2
DICPCG:  Solving for Vm, Initial residual = 9.16402e-16, Final residual = 9.16402e-16, No Iterations 0
ExecutionTime = 0.02 s  ClockTime = 0 s

Time = 0.0297085

DEBUG cell=0 t=0.029148→0.0297085 step=0.000560538 V=0.494183 u1=1.7024 u2=0.89678 u3=0 Iion=-1.45173
DEBUG cell=0 t=0.029148→0.0297085 step=0.00504484 V=0.494183 u1=1.70319 u2=0.896291 u3=0 Iion=-1.45186
PIMPLE: iteration 1
DICPCG:  Solving for Vm, Initial residual = 0.000136503, Final residual = 9.1519e-16, No Iterations 5
PIMPLE: iteration 2
DICPCG:  Solving for Vm, Initial residual = 9.17163e-16, Final residual = 9.17163e-16, No Iterations 0
ExecutionTime = 0.02 s  ClockTime = 0 s

Time = 0.0302691

DEBUG cell=0 t=0.0297085→0.0302691 step=0.000560538 V=0.494318 u1=1.70319 u2=0.896291 u3=0 Iion=-1.45186
DEBUG cell=0 t=0.0297085→0.0302691 step=0.00504484 V=0.494318 u1=1.70398 u2=0.895804 u3=0 Iion=-1.452
PIMPLE: iteration 1
DICPCG:  Solving for Vm, Initial residual = 0.000136429, Final residual = 9.14694e-16, No Iterations 5
PIMPLE: iteration 2
DICPCG:  Solving for Vm, Initial residual = 9.17656e-16, Final residual = 9.17656e-16, No Iterations 0
ExecutionTime = 0.02 s  ClockTime = 0 s

Time = 0.0308296

DEBUG cell=0 t=0.0302691→0.0308296 step=0.000560538 V=0.494453 u1=1.70398 u2=0.895804 u3=0 Iion=-1.452
DEBUG cell=0 t=0.0302691→0.0308296 step=0.00504484 V=0.494453 u1=1.70477 u2=0.895317 u3=0 Iion=-1.45213
PIMPLE: iteration 1
DICPCG:  Solving for Vm, Initial residual = 0.000136355, Final residual = 9.14199e-16, No Iterations 5
PIMPLE: iteration 2
DICPCG:  Solving for Vm, Initial residual = 9.20299e-16, Final residual = 9.20299e-16, No Iterations 0
ExecutionTime = 0.02 s  ClockTime = 0 s

Time = 0.0313901

DEBUG cell=0 t=0.0308296→0.0313901 step=0.000560538 V=0.494588 u1=1.70477 u2=0.895317 u3=0 Iion=-1.45213
DEBUG cell=0 t=0.0308296→0.0313901 step=0.00504484 V=0.494588 u1=1.70557 u2=0.89483 u3=0 Iion=-1.45227
PIMPLE: iteration 1
DICPCG:  Solving for Vm, Initial residual = 0.000136281, Final residual = 9.13704e-16, No Iterations 5
PIMPLE: iteration 2
DICPCG:  Solving for Vm, Initial residual = 9.12624e-16, Final residual = 9.12624e-16, No Iterations 0
ExecutionTime = 0.02 s  ClockTime = 0 s

Time = 0.0319507

DEBUG cell=0 t=0.0313901→0.0319507 step=0.000560538 V=0.494723 u1=1.70557 u2=0.89483 u3=0 Iion=-1.45227
DEBUG cell=0 t=0.0313901→0.0319507 step=0.00504484 V=0.494723 u1=1.70636 u2=0.894344 u3=0 Iion=-1.4524
PIMPLE: iteration 1
DICPCG:  Solving for Vm, Initial residual = 0.000136208, Final residual = 9.13209e-16, No Iterations 5
PIMPLE: iteration 2
DICPCG:  Solving for Vm, Initial residual = 9.18786e-16, Final residual = 9.18786e-16, No Iterations 0
ExecutionTime = 0.02 s  ClockTime = 0 s

Time = 0.0325112

DEBUG cell=0 t=0.0319507→0.0325112 step=0.000560538 V=0.494857 u1=1.70636 u2=0.894344 u3=0 Iion=-1.4524
DEBUG cell=0 t=0.0319507→0.0325112 step=0.00504484 V=0.494857 u1=1.70715 u2=0.893858 u3=0 Iion=-1.45254
PIMPLE: iteration 1
DICPCG:  Solving for Vm, Initial residual = 0.000136134, Final residual = 9.12715e-16, No Iterations 5
PIMPLE: iteration 2
DICPCG:  Solving for Vm, Initial residual = 9.11477e-16, Final residual = 9.11477e-16, No Iterations 0
ExecutionTime = 0.02 s  ClockTime = 0 s

Time = 0.0330717

DEBUG cell=0 t=0.0325112→0.0330717 step=0.000560538 V=0.494992 u1=1.70715 u2=0.893858 u3=0 Iion=-1.45254
DEBUG cell=0 t=0.0325112→0.0330717 step=0.00504484 V=0.494992 u1=1.70794 u2=0.893373 u3=0 Iion=-1.45267
PIMPLE: iteration 1
DICPCG:  Solving for Vm, Initial residual = 0.00013606, Final residual = 9.12222e-16, No Iterations 5
PIMPLE: iteration 2
DICPCG:  Solving for Vm, Initial residual = 9.21711e-16, Final residual = 9.21711e-16, No Iterations 0
ExecutionTime = 0.02 s  ClockTime = 0 s

Time = 0.0336323

DEBUG cell=0 t=0.0330717→0.0336323 step=0.000560538 V=0.495127 u1=1.70794 u2=0.893373 u3=0 Iion=-1.45267
DEBUG cell=0 t=0.0330717→0.0336323 step=0.00504484 V=0.495127 u1=1.70874 u2=0.892889 u3=0 Iion=-1.45281
PIMPLE: iteration 1
DICPCG:  Solving for Vm, Initial residual = 0.000135987, Final residual = 9.11729e-16, No Iterations 5
PIMPLE: iteration 2
DICPCG:  Solving for Vm, Initial residual = 9.10066e-16, Final residual = 9.10066e-16, No Iterations 0
ExecutionTime = 0.03 s  ClockTime = 0 s

Time = 0.0341928

DEBUG cell=0 t=0.0336323→0.0341928 step=0.000560538 V=0.495262 u1=1.70874 u2=0.892889 u3=0 Iion=-1.45281
DEBUG cell=0 t=0.0336323→0.0341928 step=0.00504484 V=0.495262 u1=1.70953 u2=0.892405 u3=0 Iion=-1.45295
PIMPLE: iteration 1
DICPCG:  Solving for Vm, Initial residual = 0.000135913, Final residual = 9.11237e-16, No Iterations 5
PIMPLE: iteration 2
DICPCG:  Solving for Vm, Initial residual = 9.15151e-16, Final residual = 9.15151e-16, No Iterations 0
ExecutionTime = 0.03 s  ClockTime = 0 s

Time = 0.0347534

DEBUG cell=0 t=0.0341928→0.0347534 step=0.000560538 V=0.495396 u1=1.70953 u2=0.892405 u3=0 Iion=-1.45295
DEBUG cell=0 t=0.0341928→0.0347534 step=0.00504484 V=0.495396 u1=1.71032 u2=0.891921 u3=0 Iion=-1.45308
PIMPLE: iteration 1
DICPCG:  Solving for Vm, Initial residual = 0.00013584, Final residual = 9.10745e-16, No Iterations 5
PIMPLE: iteration 2
DICPCG:  Solving for Vm, Initial residual = 9.13749e-16, Final residual = 9.13749e-16, No Iterations 0
ExecutionTime = 0.03 s  ClockTime = 0 s

Time = 0.0353139

DEBUG cell=0 t=0.0347534→0.0353139 step=0.000560538 V=0.495531 u1=1.71032 u2=0.891921 u3=0 Iion=-1.45308
DEBUG cell=0 t=0.0347534→0.0353139 step=0.00504484 V=0.495531 u1=1.71111 u2=0.891439 u3=0 Iion=-1.45322
PIMPLE: iteration 1
DICPCG:  Solving for Vm, Initial residual = 0.000135767, Final residual = 9.10254e-16, No Iterations 5
PIMPLE: iteration 2
DICPCG:  Solving for Vm, Initial residual = 9.18867e-16, Final residual = 9.18867e-16, No Iterations 0
ExecutionTime = 0.03 s  ClockTime = 0 s

Time = 0.0358744

DEBUG cell=0 t=0.0353139→0.0358744 step=0.000560538 V=0.495665 u1=1.71111 u2=0.891439 u3=0 Iion=-1.45322
DEBUG cell=0 t=0.0353139→0.0358744 step=0.00504484 V=0.495665 u1=1.71191 u2=0.890956 u3=0 Iion=-1.45335
PIMPLE: iteration 1
DICPCG:  Solving for Vm, Initial residual = 0.000135693, Final residual = 9.09763e-16, No Iterations 5
PIMPLE: iteration 2
DICPCG:  Solving for Vm, Initial residual = 9.10771e-16, Final residual = 9.10771e-16, No Iterations 0
ExecutionTime = 0.03 s  ClockTime = 0 s

Time = 0.036435

DEBUG cell=0 t=0.0358744→0.036435 step=0.000560538 V=0.4958 u1=1.71191 u2=0.890956 u3=0 Iion=-1.45335
DEBUG cell=0 t=0.0358744→0.036435 step=0.00504484 V=0.4958 u1=1.7127 u2=0.890474 u3=0 Iion=-1.45349
PIMPLE: iteration 1
DICPCG:  Solving for Vm, Initial residual = 0.00013562, Final residual = 9.09273e-16, No Iterations 5
PIMPLE: iteration 2
DICPCG:  Solving for Vm, Initial residual = 9.0878e-16, Final residual = 9.0878e-16, No Iterations 0
ExecutionTime = 0.03 s  ClockTime = 0 s

Time = 0.0369955

DEBUG cell=0 t=0.036435→0.0369955 step=0.000560538 V=0.495935 u1=1.7127 u2=0.890474 u3=0 Iion=-1.45349
DEBUG cell=0 t=0.036435→0.0369955 step=0.00504484 V=0.495935 u1=1.71349 u2=0.889993 u3=0 Iion=-1.45362
PIMPLE: iteration 1
DICPCG:  Solving for Vm, Initial residual = 0.000135547, Final residual = 9.08783e-16, No Iterations 5
PIMPLE: iteration 2
DICPCG:  Solving for Vm, Initial residual = 9.13403e-16, Final residual = 9.13403e-16, No Iterations 0
ExecutionTime = 0.03 s  ClockTime = 0 s

Time = 0.037556

DEBUG cell=0 t=0.0369955→0.037556 step=0.000560538 V=0.496069 u1=1.71349 u2=0.889993 u3=0 Iion=-1.45362
DEBUG cell=0 t=0.0369955→0.037556 step=0.00504484 V=0.496069 u1=1.71428 u2=0.889512 u3=0 Iion=-1.45376
PIMPLE: iteration 1
DICPCG:  Solving for Vm, Initial residual = 0.000135474, Final residual = 9.08294e-16, No Iterations 5
PIMPLE: iteration 2
DICPCG:  Solving for Vm, Initial residual = 9.10391e-16, Final residual = 9.10391e-16, No Iterations 0
ExecutionTime = 0.03 s  ClockTime = 0 s

Time = 0.0381166

DEBUG cell=0 t=0.037556→0.0381166 step=0.000560538 V=0.496203 u1=1.71428 u2=0.889512 u3=0 Iion=-1.45376
DEBUG cell=0 t=0.037556→0.0381166 step=0.00504484 V=0.496203 u1=1.71507 u2=0.889032 u3=0 Iion=-1.45389
PIMPLE: iteration 1
DICPCG:  Solving for Vm, Initial residual = 0.000135401, Final residual = 9.07805e-16, No Iterations 5
PIMPLE: iteration 2
DICPCG:  Solving for Vm, Initial residual = 9.09802e-16, Final residual = 9.09802e-16, No Iterations 0
ExecutionTime = 0.03 s  ClockTime = 0 s

Time = 0.0386771

DEBUG cell=0 t=0.0381166→0.0386771 step=0.000560538 V=0.496338 u1=1.71507 u2=0.889032 u3=0 Iion=-1.45389
DEBUG cell=0 t=0.0381166→0.0386771 step=0.00504484 V=0.496338 u1=1.71587 u2=0.888552 u3=0 Iion=-1.45403
PIMPLE: iteration 1
DICPCG:  Solving for Vm, Initial residual = 0.000135329, Final residual = 9.07317e-16, No Iterations 5
PIMPLE: iteration 2
DICPCG:  Solving for Vm, Initial residual = 9.10742e-16, Final residual = 9.10742e-16, No Iterations 0
ExecutionTime = 0.03 s  ClockTime = 0 s

Time = 0.0392377

DEBUG cell=0 t=0.0386771→0.0392377 step=0.000560538 V=0.496472 u1=1.71587 u2=0.888552 u3=0 Iion=-1.45403
DEBUG cell=0 t=0.0386771→0.0392377 step=0.00504484 V=0.496472 u1=1.71666 u2=0.888073 u3=0 Iion=-1.45416
PIMPLE: iteration 1
DICPCG:  Solving for Vm, Initial residual = 0.000135256, Final residual = 9.06829e-16, No Iterations 5
PIMPLE: iteration 2
DICPCG:  Solving for Vm, Initial residual = 9.05562e-16, Final residual = 9.05562e-16, No Iterations 0
ExecutionTime = 0.03 s  ClockTime = 0 s

Time = 0.0397982

DEBUG cell=0 t=0.0392377→0.0397982 step=0.000560538 V=0.496607 u1=1.71666 u2=0.888073 u3=0 Iion=-1.45416
DEBUG cell=0 t=0.0392377→0.0397982 step=0.00504484 V=0.496607 u1=1.71745 u2=0.887594 u3=0 Iion=-1.4543
PIMPLE: iteration 1
DICPCG:  Solving for Vm, Initial residual = 0.000135183, Final residual = 9.06342e-16, No Iterations 5
PIMPLE: iteration 2
DICPCG:  Solving for Vm, Initial residual = 9.08551e-16, Final residual = 9.08551e-16, No Iterations 0
ExecutionTime = 0.03 s  ClockTime = 0 s

Time = 0.0403587

DEBUG cell=0 t=0.0397982→0.0403587 step=0.000560538 V=0.496741 u1=1.71745 u2=0.887594 u3=0 Iion=-1.4543
DEBUG cell=0 t=0.0397982→0.0403587 step=0.00504484 V=0.496741 u1=1.71824 u2=0.887116 u3=0 Iion=-1.45444
PIMPLE: iteration 1
DICPCG:  Solving for Vm, Initial residual = 0.000135111, Final residual = 9.05856e-16, No Iterations 5
PIMPLE: iteration 2
DICPCG:  Solving for Vm, Initial residual = 9.09896e-16, Final residual = 9.09896e-16, No Iterations 0
ExecutionTime = 0.03 s  ClockTime = 0 s

Time = 0.0409193

DEBUG cell=0 t=0.0403587→0.0409193 step=0.000560538 V=0.496875 u1=1.71824 u2=0.887116 u3=0 Iion=-1.45444
DEBUG cell=0 t=0.0403587→0.0409193 step=0.00504484 V=0.496875 u1=1.71903 u2=0.886638 u3=0 Iion=-1.45457
PIMPLE: iteration 1
DICPCG:  Solving for Vm, Initial residual = 0.000135038, Final residual = 9.0537e-16, No Iterations 5
PIMPLE: iteration 2
DICPCG:  Solving for Vm, Initial residual = 9.10405e-16, Final residual = 9.10405e-16, No Iterations 0
ExecutionTime = 0.03 s  ClockTime = 0 s

Time = 0.0414798

DEBUG cell=0 t=0.0409193→0.0414798 step=0.000560538 V=0.497009 u1=1.71903 u2=0.886638 u3=0 Iion=-1.45457
DEBUG cell=0 t=0.0409193→0.0414798 step=0.00504484 V=0.497009 u1=1.71983 u2=0.886161 u3=0 Iion=-1.45471
PIMPLE: iteration 1
DICPCG:  Solving for Vm, Initial residual = 0.000134966, Final residual = 9.04884e-16, No Iterations 5
PIMPLE: iteration 2
DICPCG:  Solving for Vm, Initial residual = 9.07026e-16, Final residual = 9.07026e-16, No Iterations 0
ExecutionTime = 0.03 s  ClockTime = 0 s

Time = 0.0420403

DEBUG cell=0 t=0.0414798→0.0420403 step=0.000560538 V=0.497144 u1=1.71983 u2=0.886161 u3=0 Iion=-1.45471
DEBUG cell=0 t=0.0414798→0.0420403 step=0.00504484 V=0.497144 u1=1.72062 u2=0.885684 u3=0 Iion=-1.45484
PIMPLE: iteration 1
DICPCG:  Solving for Vm, Initial residual = 0.000134893, Final residual = 9.04399e-16, No Iterations 5
PIMPLE: iteration 2
DICPCG:  Solving for Vm, Initial residual = 9.07033e-16, Final residual = 9.07033e-16, No Iterations 0
ExecutionTime = 0.03 s  ClockTime = 0 s

Time = 0.0426009

DEBUG cell=0 t=0.0420403→0.0426009 step=0.000560538 V=0.497278 u1=1.72062 u2=0.885684 u3=0 Iion=-1.45484
DEBUG cell=0 t=0.0420403→0.0426009 step=0.00504484 V=0.497278 u1=1.72141 u2=0.885208 u3=0 Iion=-1.45498
PIMPLE: iteration 1
DICPCG:  Solving for Vm, Initial residual = 0.000134821, Final residual = 9.03915e-16, No Iterations 5
PIMPLE: iteration 2
DICPCG:  Solving for Vm, Initial residual = 9.0612e-16, Final residual = 9.0612e-16, No Iterations 0
ExecutionTime = 0.03 s  ClockTime = 0 s

Time = 0.0431614

DEBUG cell=0 t=0.0426009→0.0431614 step=0.000560538 V=0.497412 u1=1.72141 u2=0.885208 u3=0 Iion=-1.45498
DEBUG cell=0 t=0.0426009→0.0431614 step=0.00504484 V=0.497412 u1=1.7222 u2=0.884732 u3=0 Iion=-1.45511
PIMPLE: iteration 1
DICPCG:  Solving for Vm, Initial residual = 0.000134749, Final residual = 9.03431e-16, No Iterations 5
PIMPLE: iteration 2
DICPCG:  Solving for Vm, Initial residual = 9.04734e-16, Final residual = 9.04734e-16, No Iterations 0
ExecutionTime = 0.03 s  ClockTime = 0 s

Time = 0.043722

DEBUG cell=0 t=0.0431614→0.043722 step=0.000560538 V=0.497546 u1=1.7222 u2=0.884732 u3=0 Iion=-1.45511
DEBUG cell=0 t=0.0431614→0.043722 step=0.00504484 V=0.497546 u1=1.72299 u2=0.884257 u3=0 Iion=-1.45525
PIMPLE: iteration 1
DICPCG:  Solving for Vm, Initial residual = 0.000134677, Final residual = 9.02948e-16, No Iterations 5
PIMPLE: iteration 2
DICPCG:  Solving for Vm, Initial residual = 9.0511e-16, Final residual = 9.0511e-16, No Iterations 0
ExecutionTime = 0.03 s  ClockTime = 0 s

Time = 0.0442825

DEBUG cell=0 t=0.043722→0.0442825 step=0.000560538 V=0.49768 u1=1.72299 u2=0.884257 u3=0 Iion=-1.45525
DEBUG cell=0 t=0.043722→0.0442825 step=0.00504484 V=0.49768 u1=1.72379 u2=0.883782 u3=0 Iion=-1.45539
PIMPLE: iteration 1
DICPCG:  Solving for Vm, Initial residual = 0.000134605, Final residual = 9.02465e-16, No Iterations 5
PIMPLE: iteration 2
DICPCG:  Solving for Vm, Initial residual = 9.0417e-16, Final residual = 9.0417e-16, No Iterations 0
ExecutionTime = 0.03 s  ClockTime = 0 s

Time = 0.044843

DEBUG cell=0 t=0.0442825→0.044843 step=0.000560538 V=0.497814 u1=1.72379 u2=0.883782 u3=0 Iion=-1.45539
DEBUG cell=0 t=0.0442825→0.044843 step=0.00504484 V=0.497814 u1=1.72458 u2=0.883308 u3=0 Iion=-1.45552
PIMPLE: iteration 1
DICPCG:  Solving for Vm, Initial residual = 0.000134533, Final residual = 9.01982e-16, No Iterations 5
PIMPLE: iteration 2
DICPCG:  Solving for Vm, Initial residual = 9.0723e-16, Final residual = 9.0723e-16, No Iterations 0
ExecutionTime = 0.03 s  ClockTime = 0 s

Time = 0.0454036

DEBUG cell=0 t=0.044843→0.0454036 step=0.000560538 V=0.497948 u1=1.72458 u2=0.883308 u3=0 Iion=-1.45552
DEBUG cell=0 t=0.044843→0.0454036 step=0.00504484 V=0.497948 u1=1.72537 u2=0.882835 u3=0 Iion=-1.45566
PIMPLE: iteration 1
DICPCG:  Solving for Vm, Initial residual = 0.000134461, Final residual = 9.01501e-16, No Iterations 5
PIMPLE: iteration 2
DICPCG:  Solving for Vm, Initial residual = 9.03329e-16, Final residual = 9.03329e-16, No Iterations 0
ExecutionTime = 0.03 s  ClockTime = 0 s

Time = 0.0459641

DEBUG cell=0 t=0.0454036→0.0459641 step=0.000560538 V=0.498082 u1=1.72537 u2=0.882835 u3=0 Iion=-1.45566
DEBUG cell=0 t=0.0454036→0.0459641 step=0.00504484 V=0.498082 u1=1.72616 u2=0.882361 u3=0 Iion=-1.45579
PIMPLE: iteration 1
DICPCG:  Solving for Vm, Initial residual = 0.000134389, Final residual = 9.01019e-16, No Iterations 5
PIMPLE: iteration 2
DICPCG:  Solving for Vm, Initial residual = 8.99349e-16, Final residual = 8.99349e-16, No Iterations 0
ExecutionTime = 0.03 s  ClockTime = 0 s

Time = 0.0465247

DEBUG cell=0 t=0.0459641→0.0465247 step=0.000560538 V=0.498216 u1=1.72616 u2=0.882361 u3=0 Iion=-1.45579
DEBUG cell=0 t=0.0459641→0.0465247 step=0.00504484 V=0.498216 u1=1.72695 u2=0.881889 u3=0 Iion=-1.45593
PIMPLE: iteration 1
DICPCG:  Solving for Vm, Initial residual = 0.000134317, Final residual = 9.00538e-16, No Iterations 5
PIMPLE: iteration 2
DICPCG:  Solving for Vm, Initial residual = 9.05612e-16, Final residual = 9.05612e-16, No Iterations 0
ExecutionTime = 0.03 s  ClockTime = 0 s

Time = 0.0470852

DEBUG cell=0 t=0.0465247→0.0470852 step=0.000560538 V=0.49835 u1=1.72695 u2=0.881889 u3=0 Iion=-1.45593
DEBUG cell=0 t=0.0465247→0.0470852 step=0.00504484 V=0.49835 u1=1.72774 u2=0.881417 u3=0 Iion=-1.45607
PIMPLE: iteration 1
DICPCG:  Solving for Vm, Initial residual = 0.000134246, Final residual = 9.00058e-16, No Iterations 5
PIMPLE: iteration 2
DICPCG:  Solving for Vm, Initial residual = 9.01372e-16, Final residual = 9.01372e-16, No Iterations 0
ExecutionTime = 0.03 s  ClockTime = 0 s

Time = 0.0476457

DEBUG cell=0 t=0.0470852→0.0476457 step=0.000560538 V=0.498483 u1=1.72774 u2=0.881417 u3=0 Iion=-1.45607
DEBUG cell=0 t=0.0470852→0.0476457 step=0.00504484 V=0.498483 u1=1.72853 u2=0.880945 u3=0 Iion=-1.4562
PIMPLE: iteration 1
DICPCG:  Solving for Vm, Initial residual = 0.000134174, Final residual = 8.99578e-16, No Iterations 5
PIMPLE: iteration 2
DICPCG:  Solving for Vm, Initial residual = 9.05186e-16, Final residual = 9.05186e-16, No Iterations 0
ExecutionTime = 0.03 s  ClockTime = 0 s

Time = 0.0482063

DEBUG cell=0 t=0.0476457→0.0482063 step=0.000560538 V=0.498617 u1=1.72853 u2=0.880945 u3=0 Iion=-1.4562
DEBUG cell=0 t=0.0476457→0.0482063 step=0.00504484 V=0.498617 u1=1.72933 u2=0.880474 u3=0 Iion=-1.45634
PIMPLE: iteration 1
DICPCG:  Solving for Vm, Initial residual = 0.000134103, Final residual = 8.99099e-16, No Iterations 5
PIMPLE: iteration 2
DICPCG:  Solving for Vm, Initial residual = 9.02564e-16, Final residual = 9.02564e-16, No Iterations 0
ExecutionTime = 0.03 s  ClockTime = 0 s

Time = 0.0487668

DEBUG cell=0 t=0.0482063→0.0487668 step=0.000560538 V=0.498751 u1=1.72933 u2=0.880474 u3=0 Iion=-1.45634
DEBUG cell=0 t=0.0482063→0.0487668 step=0.00504484 V=0.498751 u1=1.73012 u2=0.880003 u3=0 Iion=-1.45647
PIMPLE: iteration 1
DICPCG:  Solving for Vm, Initial residual = 0.000134031, Final residual = 8.9862e-16, No Iterations 5
PIMPLE: iteration 2
DICPCG:  Solving for Vm, Initial residual = 8.96652e-16, Final residual = 8.96652e-16, No Iterations 0
ExecutionTime = 0.03 s  ClockTime = 0 s

Time = 0.0493273

DEBUG cell=0 t=0.0487668→0.0493273 step=0.000560538 V=0.498885 u1=1.73012 u2=0.880003 u3=0 Iion=-1.45647
DEBUG cell=0 t=0.0487668→0.0493273 step=0.00504484 V=0.498885 u1=1.73091 u2=0.879533 u3=0 Iion=-1.45661
PIMPLE: iteration 1
DICPCG:  Solving for Vm, Initial residual = 0.00013396, Final residual = 8.98142e-16, No Iterations 5
PIMPLE: iteration 2
DICPCG:  Solving for Vm, Initial residual = 9.04176e-16, Final residual = 9.04176e-16, No Iterations 0
ExecutionTime = 0.03 s  ClockTime = 0 s

Time = 0.0498879

DEBUG cell=0 t=0.0493273→0.0498879 step=0.000560538 V=0.499018 u1=1.73091 u2=0.879533 u3=0 Iion=-1.45661
DEBUG cell=0 t=0.0493273→0.0498879 step=0.00504484 V=0.499018 u1=1.7317 u2=0.879064 u3=0 Iion=-1.45675
PIMPLE: iteration 1
DICPCG:  Solving for Vm, Initial residual = 0.000133889, Final residual = 8.97664e-16, No Iterations 5
PIMPLE: iteration 2
DICPCG:  Solving for Vm, Initial residual = 9.00049e-16, Final residual = 9.00049e-16, No Iterations 0
ExecutionTime = 0.04 s  ClockTime = 0 s

Time = 0.0504484

DEBUG cell=0 t=0.0498879→0.0504484 step=0.000560538 V=0.499152 u1=1.7317 u2=0.879064 u3=0 Iion=-1.45675
DEBUG cell=0 t=0.0498879→0.0504484 step=0.00504484 V=0.499152 u1=1.73249 u2=0.878595 u3=0 Iion=-1.45688
PIMPLE: iteration 1
DICPCG:  Solving for Vm, Initial residual = 0.000133818, Final residual = 8.97187e-16, No Iterations 5
PIMPLE: iteration 2
DICPCG:  Solving for Vm, Initial residual = 8.97233e-16, Final residual = 8.97233e-16, No Iterations 0
ExecutionTime = 0.04 s  ClockTime = 0 s

Time = 0.051009

DEBUG cell=0 t=0.0504484→0.051009 step=0.000560538 V=0.499286 u1=1.73249 u2=0.878595 u3=0 Iion=-1.45688
DEBUG cell=0 t=0.0504484→0.051009 step=0.00504484 V=0.499286 u1=1.73328 u2=0.878126 u3=0 Iion=-1.45702
PIMPLE: iteration 1
DICPCG:  Solving for Vm, Initial residual = 0.000133746, Final residual = 8.9671e-16, No Iterations 5
PIMPLE: iteration 2
DICPCG:  Solving for Vm, Initial residual = 9.02928e-16, Final residual = 9.02928e-16, No Iterations 0
ExecutionTime = 0.04 s  ClockTime = 0 s

Time = 0.0515695

DEBUG cell=0 t=0.051009→0.0515695 step=0.000560538 V=0.499419 u1=1.73328 u2=0.878126 u3=0 Iion=-1.45702
DEBUG cell=0 t=0.051009→0.0515695 step=0.00504484 V=0.499419 u1=1.73407 u2=0.877658 u3=0 Iion=-1.45716
PIMPLE: iteration 1
DICPCG:  Solving for Vm, Initial residual = 0.000133675, Final residual = 8.96234e-16, No Iterations 5
PIMPLE: iteration 2
DICPCG:  Solving for Vm, Initial residual = 8.97951e-16, Final residual = 8.97951e-16, No Iterations 0
ExecutionTime = 0.04 s  ClockTime = 0 s

Time = 0.05213

DEBUG cell=0 t=0.0515695→0.05213 step=0.000560538 V=0.499553 u1=1.73407 u2=0.877658 u3=0 Iion=-1.45716
DEBUG cell=0 t=0.0515695→0.05213 step=0.00504484 V=0.499553 u1=1.73487 u2=0.87719 u3=0 Iion=-1.45729
PIMPLE: iteration 1
DICPCG:  Solving for Vm, Initial residual = 0.000133604, Final residual = 8.95758e-16, No Iterations 5
PIMPLE: iteration 2
DICPCG:  Solving for Vm, Initial residual = 8.98344e-16, Final residual = 8.98344e-16, No Iterations 0
ExecutionTime = 0.04 s  ClockTime = 0 s

Time = 0.0526906

DEBUG cell=0 t=0.05213→0.0526906 step=0.000560538 V=0.499686 u1=1.73487 u2=0.87719 u3=0 Iion=-1.45729
DEBUG cell=0 t=0.05213→0.0526906 step=0.00504484 V=0.499686 u1=1.73566 u2=0.876723 u3=0 Iion=-1.45743
PIMPLE: iteration 1
DICPCG:  Solving for Vm, Initial residual = 0.000133534, Final residual = 8.95283e-16, No Iterations 5
PIMPLE: iteration 2
DICPCG:  Solving for Vm, Initial residual = 9.00145e-16, Final residual = 9.00145e-16, No Iterations 0
ExecutionTime = 0.05 s  ClockTime = 0 s

Time = 0.0532511

DEBUG cell=0 t=0.0526906→0.0532511 step=0.000560538 V=0.49982 u1=1.73566 u2=0.876723 u3=0 Iion=-1.45743
DEBUG cell=0 t=0.0526906→0.0532511 step=0.00504484 V=0.49982 u1=1.73645 u2=0.876257 u3=0 Iion=-1.45757
PIMPLE: iteration 1
DICPCG:  Solving for Vm, Initial residual = 0.000133463, Final residual = 8.94809e-16, No Iterations 5
PIMPLE: iteration 2
DICPCG:  Solving for Vm, Initial residual = 8.96801e-16, Final residual = 8.96801e-16, No Iterations 0
ExecutionTime = 0.05 s  ClockTime = 0 s

Time = 0.0538116

DEBUG cell=0 t=0.0532511→0.0538116 step=0.000560538 V=0.499953 u1=1.73645 u2=0.876257 u3=0 Iion=-1.45757
DEBUG cell=0 t=0.0532511→0.0538116 step=0.00504484 V=0.499953 u1=1.73724 u2=0.87579 u3=0 Iion=-1.4577
PIMPLE: iteration 1
DICPCG:  Solving for Vm, Initial residual = 0.000133392, Final residual = 8.94334e-16, No Iterations 5
PIMPLE: iteration 2
DICPCG:  Solving for Vm, Initial residual = 8.97933e-16, Final residual = 8.97933e-16, No Iterations 0
ExecutionTime = 0.05 s  ClockTime = 0 s

Time = 0.0543722

DEBUG cell=0 t=0.0538116→0.0543722 step=0.000560538 V=0.500087 u1=1.73724 u2=0.87579 u3=0 Iion=-1.4577
DEBUG cell=0 t=0.0538116→0.0543722 step=0.00504484 V=0.500087 u1=1.73803 u2=0.875325 u3=0 Iion=-1.45784
PIMPLE: iteration 1
DICPCG:  Solving for Vm, Initial residual = 0.000133321, Final residual = 8.93861e-16, No Iterations 5
PIMPLE: iteration 2
DICPCG:  Solving for Vm, Initial residual = 8.98978e-16, Final residual = 8.98978e-16, No Iterations 0
ExecutionTime = 0.05 s  ClockTime = 0 s

Time = 0.0549327

DEBUG cell=0 t=0.0543722→0.0549327 step=0.000560538 V=0.50022 u1=1.73803 u2=0.875325 u3=0 Iion=-1.45784
DEBUG cell=0 t=0.0543722→0.0549327 step=0.00504484 V=0.50022 u1=1.73882 u2=0.87486 u3=0 Iion=-1.45797
PIMPLE: iteration 1
DICPCG:  Solving for Vm, Initial residual = 0.000133251, Final residual = 8.93388e-16, No Iterations 5
PIMPLE: iteration 2
DICPCG:  Solving for Vm, Initial residual = 8.98789e-16, Final residual = 8.98789e-16, No Iterations 0
ExecutionTime = 0.05 s  ClockTime = 0 s

Time = 0.0554933

DEBUG cell=0 t=0.0549327→0.0554933 step=0.000560538 V=0.500353 u1=1.73882 u2=0.87486 u3=0 Iion=-1.45797
DEBUG cell=0 t=0.0549327→0.0554933 step=0.00504484 V=0.500353 u1=1.73961 u2=0.874395 u3=0 Iion=-1.45811
PIMPLE: iteration 1
DICPCG:  Solving for Vm, Initial residual = 0.00013318, Final residual = 8.92915e-16, No Iterations 5
PIMPLE: iteration 2
DICPCG:  Solving for Vm, Initial residual = 8.97262e-16, Final residual = 8.97262e-16, No Iterations 0
ExecutionTime = 0.05 s  ClockTime = 0 s

Time = 0.0560538

DEBUG cell=0 t=0.0554933→0.0560538 step=0.000560538 V=0.500487 u1=1.73961 u2=0.874395 u3=0 Iion=-1.45811
DEBUG cell=0 t=0.0554933→0.0560538 step=0.00504484 V=0.500487 u1=1.7404 u2=0.873931 u3=0 Iion=-1.45825
PIMPLE: iteration 1
DICPCG:  Solving for Vm, Initial residual = 0.00013311, Final residual = 8.92443e-16, No Iterations 5
PIMPLE: iteration 2
DICPCG:  Solving for Vm, Initial residual = 8.98832e-16, Final residual = 8.98832e-16, No Iterations 0
ExecutionTime = 0.05 s  ClockTime = 0 s

Time = 0.0566143

DEBUG cell=0 t=0.0560538→0.0566143 step=0.000560538 V=0.50062 u1=1.7404 u2=0.873931 u3=0 Iion=-1.45825
DEBUG cell=0 t=0.0560538→0.0566143 step=0.00504484 V=0.50062 u1=1.74119 u2=0.873467 u3=0 Iion=-1.45838
PIMPLE: iteration 1
DICPCG:  Solving for Vm, Initial residual = 0.000133039, Final residual = 8.91971e-16, No Iterations 5
PIMPLE: iteration 2
DICPCG:  Solving for Vm, Initial residual = 8.90691e-16, Final residual = 8.90691e-16, No Iterations 0
ExecutionTime = 0.05 s  ClockTime = 0 s

Time = 0.0571749

DEBUG cell=0 t=0.0566143→0.0571749 step=0.000560538 V=0.500753 u1=1.74119 u2=0.873467 u3=0 Iion=-1.45838
DEBUG cell=0 t=0.0566143→0.0571749 step=0.00504484 V=0.500753 u1=1.74199 u2=0.873004 u3=0 Iion=-1.45852
PIMPLE: iteration 1
DICPCG:  Solving for Vm, Initial residual = 0.000132969, Final residual = 8.915e-16, No Iterations 5
PIMPLE: iteration 2
DICPCG:  Solving for Vm, Initial residual = 9.02032e-16, Final residual = 9.02032e-16, No Iterations 0
ExecutionTime = 0.05 s  ClockTime = 0 s

Time = 0.0577354

DEBUG cell=0 t=0.0571749→0.0577354 step=0.000560538 V=0.500886 u1=1.74199 u2=0.873004 u3=0 Iion=-1.45852
DEBUG cell=0 t=0.0571749→0.0577354 step=0.00504484 V=0.500886 u1=1.74278 u2=0.872542 u3=0 Iion=-1.45866
PIMPLE: iteration 1
DICPCG:  Solving for Vm, Initial residual = 0.000132899, Final residual = 8.91029e-16, No Iterations 5
PIMPLE: iteration 2
DICPCG:  Solving for Vm, Initial residual = 8.95748e-16, Final residual = 8.95748e-16, No Iterations 0
ExecutionTime = 0.05 s  ClockTime = 0 s

Time = 0.058296

DEBUG cell=0 t=0.0577354→0.058296 step=0.000560538 V=0.50102 u1=1.74278 u2=0.872542 u3=0 Iion=-1.45866
DEBUG cell=0 t=0.0577354→0.058296 step=0.00504484 V=0.50102 u1=1.74357 u2=0.872079 u3=0 Iion=-1.45879
PIMPLE: iteration 1
DICPCG:  Solving for Vm, Initial residual = 0.000132829, Final residual = 8.90559e-16, No Iterations 5
PIMPLE: iteration 2
DICPCG:  Solving for Vm, Initial residual = 8.91857e-16, Final residual = 8.91857e-16, No Iterations 0
ExecutionTime = 0.05 s  ClockTime = 0 s

Time = 0.0588565

DEBUG cell=0 t=0.058296→0.0588565 step=0.000560538 V=0.501153 u1=1.74357 u2=0.872079 u3=0 Iion=-1.45879
DEBUG cell=0 t=0.058296→0.0588565 step=0.00504484 V=0.501153 u1=1.74436 u2=0.871618 u3=0 Iion=-1.45893
PIMPLE: iteration 1
DICPCG:  Solving for Vm, Initial residual = 0.000132759, Final residual = 8.90089e-16, No Iterations 5
PIMPLE: iteration 2
DICPCG:  Solving for Vm, Initial residual = 8.93024e-16, Final residual = 8.93024e-16, No Iterations 0
ExecutionTime = 0.05 s  ClockTime = 0 s

Time = 0.059417

DEBUG cell=0 t=0.0588565→0.059417 step=0.000560538 V=0.501286 u1=1.74436 u2=0.871618 u3=0 Iion=-1.45893
DEBUG cell=0 t=0.0588565→0.059417 step=0.00504484 V=0.501286 u1=1.74515 u2=0.871157 u3=0 Iion=-1.45907
PIMPLE: iteration 1
DICPCG:  Solving for Vm, Initial residual = 0.000132689, Final residual = 8.8962e-16, No Iterations 5
PIMPLE: iteration 2
DICPCG:  Solving for Vm, Initial residual = 8.91129e-16, Final residual = 8.91129e-16, No Iterations 0
ExecutionTime = 0.05 s  ClockTime = 0 s

Time = 0.0599776

DEBUG cell=0 t=0.059417→0.0599776 step=0.000560538 V=0.501419 u1=1.74515 u2=0.871157 u3=0 Iion=-1.45907
DEBUG cell=0 t=0.059417→0.0599776 step=0.00504484 V=0.501419 u1=1.74594 u2=0.870696 u3=0 Iion=-1.4592
PIMPLE: iteration 1
DICPCG:  Solving for Vm, Initial residual = 0.000132619, Final residual = 8.89151e-16, No Iterations 5
PIMPLE: iteration 2
DICPCG:  Solving for Vm, Initial residual = 8.91864e-16, Final residual = 8.91864e-16, No Iterations 0
ExecutionTime = 0.05 s  ClockTime = 0 s

Time = 0.0605381

DEBUG cell=0 t=0.0599776→0.0605381 step=0.000560538 V=0.501552 u1=1.74594 u2=0.870696 u3=0 Iion=-1.4592
DEBUG cell=0 t=0.0599776→0.0605381 step=0.00504484 V=0.501552 u1=1.74673 u2=0.870236 u3=0 Iion=-1.45934
PIMPLE: iteration 1
DICPCG:  Solving for Vm, Initial residual = 0.000132549, Final residual = 8.88683e-16, No Iterations 5
PIMPLE: iteration 2
DICPCG:  Solving for Vm, Initial residual = 8.93557e-16, Final residual = 8.93557e-16, No Iterations 0
ExecutionTime = 0.05 s  ClockTime = 0 s

Time = 0.0610986

DEBUG cell=0 t=0.0605381→0.0610986 step=0.000560538 V=0.501685 u1=1.74673 u2=0.870236 u3=0 Iion=-1.45934
DEBUG cell=0 t=0.0605381→0.0610986 step=0.00504484 V=0.501685 u1=1.74752 u2=0.869776 u3=0 Iion=-1.45948
PIMPLE: iteration 1
DICPCG:  Solving for Vm, Initial residual = 0.000132479, Final residual = 8.88216e-16, No Iterations 5
PIMPLE: iteration 2
DICPCG:  Solving for Vm, Initial residual = 8.88309e-16, Final residual = 8.88309e-16, No Iterations 0
ExecutionTime = 0.05 s  ClockTime = 0 s

Time = 0.0616592

DEBUG cell=0 t=0.0610986→0.0616592 step=0.000560538 V=0.501818 u1=1.74752 u2=0.869776 u3=0 Iion=-1.45948
DEBUG cell=0 t=0.0610986→0.0616592 step=0.00504484 V=0.501818 u1=1.74831 u2=0.869317 u3=0 Iion=-1.45962
PIMPLE: iteration 1
DICPCG:  Solving for Vm, Initial residual = 0.00013241, Final residual = 8.87748e-16, No Iterations 5
PIMPLE: iteration 2
DICPCG:  Solving for Vm, Initial residual = 8.91628e-16, Final residual = 8.91628e-16, No Iterations 0
ExecutionTime = 0.05 s  ClockTime = 0 s

Time = 0.0622197

DEBUG cell=0 t=0.0616592→0.0622197 step=0.000560538 V=0.501951 u1=1.74831 u2=0.869317 u3=0 Iion=-1.45962
DEBUG cell=0 t=0.0616592→0.0622197 step=0.00504484 V=0.501951 u1=1.7491 u2=0.868858 u3=0 Iion=-1.45975
PIMPLE: iteration 1
DICPCG:  Solving for Vm, Initial residual = 0.00013234, Final residual = 8.87282e-16, No Iterations 5
PIMPLE: iteration 2
DICPCG:  Solving for Vm, Initial residual = 8.88176e-16, Final residual = 8.88176e-16, No Iterations 0
ExecutionTime = 0.05 s  ClockTime = 0 s

Time = 0.0627803

DEBUG cell=0 t=0.0622197→0.0627803 step=0.000560538 V=0.502084 u1=1.7491 u2=0.868858 u3=0 Iion=-1.45975
DEBUG cell=0 t=0.0622197→0.0627803 step=0.00504484 V=0.502084 u1=1.74989 u2=0.8684 u3=0 Iion=-1.45989
PIMPLE: iteration 1
DICPCG:  Solving for Vm, Initial residual = 0.00013227, Final residual = 8.86815e-16, No Iterations 5
PIMPLE: iteration 2
DICPCG:  Solving for Vm, Initial residual = 8.93411e-16, Final residual = 8.93411e-16, No Iterations 0
ExecutionTime = 0.05 s  ClockTime = 0 s

Time = 0.0633408

DEBUG cell=0 t=0.0627803→0.0633408 step=0.000560538 V=0.502216 u1=1.74989 u2=0.8684 u3=0 Iion=-1.45989
DEBUG cell=0 t=0.0627803→0.0633408 step=0.00504484 V=0.502216 u1=1.75068 u2=0.867942 u3=0 Iion=-1.46003
PIMPLE: iteration 1
DICPCG:  Solving for Vm, Initial residual = 0.000132201, Final residual = 8.8635e-16, No Iterations 5
PIMPLE: iteration 2
DICPCG:  Solving for Vm, Initial residual = 8.8773e-16, Final residual = 8.8773e-16, No Iterations 0
ExecutionTime = 0.05 s  ClockTime = 0 s

Time = 0.0639013

DEBUG cell=0 t=0.0633408→0.0639013 step=0.000560538 V=0.502349 u1=1.75068 u2=0.867942 u3=0 Iion=-1.46003
DEBUG cell=0 t=0.0633408→0.0639013 step=0.00504484 V=0.502349 u1=1.75147 u2=0.867485 u3=0 Iion=-1.46016
PIMPLE: iteration 1
DICPCG:  Solving for Vm, Initial residual = 0.000132132, Final residual = 8.85884e-16, No Iterations 5
PIMPLE: iteration 2
DICPCG:  Solving for Vm, Initial residual = 8.87599e-16, Final residual = 8.87599e-16, No Iterations 0
ExecutionTime = 0.05 s  ClockTime = 0 s

Time = 0.0644619

DEBUG cell=0 t=0.0639013→0.0644619 step=0.000560538 V=0.502482 u1=1.75147 u2=0.867485 u3=0 Iion=-1.46016
DEBUG cell=0 t=0.0639013→0.0644619 step=0.00504484 V=0.502482 u1=1.75226 u2=0.867028 u3=0 Iion=-1.4603
PIMPLE: iteration 1
DICPCG:  Solving for Vm, Initial residual = 0.000132062, Final residual = 8.8542e-16, No Iterations 5
PIMPLE: iteration 2
DICPCG:  Solving for Vm, Initial residual = 8.92495e-16, Final residual = 8.92495e-16, No Iterations 0
ExecutionTime = 0.05 s  ClockTime = 0 s

Time = 0.0650224

DEBUG cell=0 t=0.0644619→0.0650224 step=0.000560538 V=0.502615 u1=1.75226 u2=0.867028 u3=0 Iion=-1.4603
DEBUG cell=0 t=0.0644619→0.0650224 step=0.00504484 V=0.502615 u1=1.75305 u2=0.866571 u3=0 Iion=-1.46044
PIMPLE: iteration 1
DICPCG:  Solving for Vm, Initial residual = 0.000131993, Final residual = 8.84955e-16, No Iterations 5
PIMPLE: iteration 2
DICPCG:  Solving for Vm, Initial residual = 8.88416e-16, Final residual = 8.88416e-16, No Iterations 0
ExecutionTime = 0.05 s  ClockTime = 0 s

Time = 0.0655829

DEBUG cell=0 t=0.0650224→0.0655829 step=0.000560538 V=0.502747 u1=1.75305 u2=0.866571 u3=0 Iion=-1.46044
DEBUG cell=0 t=0.0650224→0.0655829 step=0.00504484 V=0.502747 u1=1.75384 u2=0.866116 u3=0 Iion=-1.46057
PIMPLE: iteration 1
DICPCG:  Solving for Vm, Initial residual = 0.000131924, Final residual = 8.84492e-16, No Iterations 5
PIMPLE: iteration 2
DICPCG:  Solving for Vm, Initial residual = 8.87516e-16, Final residual = 8.87516e-16, No Iterations 0
ExecutionTime = 0.05 s  ClockTime = 0 s

Time = 0.0661435

DEBUG cell=0 t=0.0655829→0.0661435 step=0.000560538 V=0.50288 u1=1.75384 u2=0.866116 u3=0 Iion=-1.46057
DEBUG cell=0 t=0.0655829→0.0661435 step=0.00504484 V=0.50288 u1=1.75463 u2=0.86566 u3=0 Iion=-1.46071
PIMPLE: iteration 1
DICPCG:  Solving for Vm, Initial residual = 0.000131855, Final residual = 8.84028e-16, No Iterations 5
PIMPLE: iteration 2
DICPCG:  Solving for Vm, Initial residual = 8.84697e-16, Final residual = 8.84697e-16, No Iterations 0
ExecutionTime = 0.05 s  ClockTime = 0 s

Time = 0.066704

DEBUG cell=0 t=0.0661435→0.066704 step=0.000560538 V=0.503013 u1=1.75463 u2=0.86566 u3=0 Iion=-1.46071
DEBUG cell=0 t=0.0661435→0.066704 step=0.00504484 V=0.503013 u1=1.75543 u2=0.865205 u3=0 Iion=-1.46085
PIMPLE: iteration 1
DICPCG:  Solving for Vm, Initial residual = 0.000131786, Final residual = 8.83566e-16, No Iterations 5
PIMPLE: iteration 2
DICPCG:  Solving for Vm, Initial residual = 8.85045e-16, Final residual = 8.85045e-16, No Iterations 0
ExecutionTime = 0.05 s  ClockTime = 0 s

Time = 0.0672646

DEBUG cell=0 t=0.066704→0.0672646 step=0.000560538 V=0.503145 u1=1.75543 u2=0.865205 u3=0 Iion=-1.46085
DEBUG cell=0 t=0.066704→0.0672646 step=0.00504484 V=0.503145 u1=1.75622 u2=0.864751 u3=0 Iion=-1.46099
PIMPLE: iteration 1
DICPCG:  Solving for Vm, Initial residual = 0.000131717, Final residual = 8.83103e-16, No Iterations 5
PIMPLE: iteration 2
DICPCG:  Solving for Vm, Initial residual = 8.8977e-16, Final residual = 8.8977e-16, No Iterations 0
ExecutionTime = 0.05 s  ClockTime = 0 s

Time = 0.0678251

DEBUG cell=0 t=0.0672646→0.0678251 step=0.000560538 V=0.503278 u1=1.75622 u2=0.864751 u3=0 Iion=-1.46099
DEBUG cell=0 t=0.0672646→0.0678251 step=0.00504484 V=0.503278 u1=1.75701 u2=0.864297 u3=0 Iion=-1.46112
PIMPLE: iteration 1
DICPCG:  Solving for Vm, Initial residual = 0.000131648, Final residual = 8.82642e-16, No Iterations 5
PIMPLE: iteration 2
DICPCG:  Solving for Vm, Initial residual = 8.8608e-16, Final residual = 8.8608e-16, No Iterations 0
ExecutionTime = 0.05 s  ClockTime = 0 s

Time = 0.0683856

DEBUG cell=0 t=0.0678251→0.0683856 step=0.000560538 V=0.503411 u1=1.75701 u2=0.864297 u3=0 Iion=-1.46112
DEBUG cell=0 t=0.0678251→0.0683856 step=0.00504484 V=0.503411 u1=1.7578 u2=0.863843 u3=0 Iion=-1.46126
PIMPLE: iteration 1
DICPCG:  Solving for Vm, Initial residual = 0.000131579, Final residual = 8.8218e-16, No Iterations 5
PIMPLE: iteration 2
DICPCG:  Solving for Vm, Initial residual = 8.8767e-16, Final residual = 8.8767e-16, No Iterations 0
ExecutionTime = 0.05 s  ClockTime = 0 s

Time = 0.0689462

DEBUG cell=0 t=0.0683856→0.0689462 step=0.000560538 V=0.503543 u1=1.7578 u2=0.863843 u3=0 Iion=-1.46126
DEBUG cell=0 t=0.0683856→0.0689462 step=0.00504484 V=0.503543 u1=1.75859 u2=0.863391 u3=0 Iion=-1.4614
PIMPLE: iteration 1
DICPCG:  Solving for Vm, Initial residual = 0.00013151, Final residual = 8.81719e-16, No Iterations 5
PIMPLE: iteration 2
DICPCG:  Solving for Vm, Initial residual = 8.80848e-16, Final residual = 8.80848e-16, No Iterations 0
ExecutionTime = 0.05 s  ClockTime = 0 s

Time = 0.0695067

DEBUG cell=0 t=0.0689462→0.0695067 step=0.000560538 V=0.503675 u1=1.75859 u2=0.863391 u3=0 Iion=-1.4614
DEBUG cell=0 t=0.0689462→0.0695067 step=0.00504484 V=0.503675 u1=1.75938 u2=0.862938 u3=0 Iion=-1.46153
PIMPLE: iteration 1
DICPCG:  Solving for Vm, Initial residual = 0.000131442, Final residual = 8.81259e-16, No Iterations 5
PIMPLE: iteration 2
DICPCG:  Solving for Vm, Initial residual = 8.87994e-16, Final residual = 8.87994e-16, No Iterations 0
ExecutionTime = 0.05 s  ClockTime = 0 s

Time = 0.0700672

DEBUG cell=0 t=0.0695067→0.0700672 step=0.000560538 V=0.503808 u1=1.75938 u2=0.862938 u3=0 Iion=-1.46153
DEBUG cell=0 t=0.0695067→0.0700672 step=0.00504484 V=0.503808 u1=1.76017 u2=0.862486 u3=0 Iion=-1.46167
PIMPLE: iteration 1
DICPCG:  Solving for Vm, Initial residual = 0.000131373, Final residual = 8.80799e-16, No Iterations 5
PIMPLE: iteration 2
DICPCG:  Solving for Vm, Initial residual = 8.80318e-16, Final residual = 8.80318e-16, No Iterations 0
ExecutionTime = 0.05 s  ClockTime = 0 s

Time = 0.0706278

DEBUG cell=0 t=0.0700672→0.0706278 step=0.000560538 V=0.50394 u1=1.76017 u2=0.862486 u3=0 Iion=-1.46167
DEBUG cell=0 t=0.0700672→0.0706278 step=0.00504484 V=0.50394 u1=1.76096 u2=0.862034 u3=0 Iion=-1.46181
PIMPLE: iteration 1
DICPCG:  Solving for Vm, Initial residual = 0.000131304, Final residual = 8.8034e-16, No Iterations 5
PIMPLE: iteration 2
DICPCG:  Solving for Vm, Initial residual = 8.86232e-16, Final residual = 8.86232e-16, No Iterations 0
ExecutionTime = 0.05 s  ClockTime = 0 s

Time = 0.0711883

DEBUG cell=0 t=0.0706278→0.0711883 step=0.000560538 V=0.504073 u1=1.76096 u2=0.862034 u3=0 Iion=-1.46181
DEBUG cell=0 t=0.0706278→0.0711883 step=0.00504484 V=0.504073 u1=1.76175 u2=0.861583 u3=0 Iion=-1.46195
PIMPLE: iteration 1
DICPCG:  Solving for Vm, Initial residual = 0.000131236, Final residual = 8.79881e-16, No Iterations 5
PIMPLE: iteration 2
DICPCG:  Solving for Vm, Initial residual = 8.85881e-16, Final residual = 8.85881e-16, No Iterations 0
ExecutionTime = 0.06 s  ClockTime = 0 s

Time = 0.0717489

DEBUG cell=0 t=0.0711883→0.0717489 step=0.000560538 V=0.504205 u1=1.76175 u2=0.861583 u3=0 Iion=-1.46195
DEBUG cell=0 t=0.0711883→0.0717489 step=0.00504484 V=0.504205 u1=1.76254 u2=0.861133 u3=0 Iion=-1.46208
PIMPLE: iteration 1
DICPCG:  Solving for Vm, Initial residual = 0.000131168, Final residual = 8.79422e-16, No Iterations 5
PIMPLE: iteration 2
DICPCG:  Solving for Vm, Initial residual = 8.82191e-16, Final residual = 8.82191e-16, No Iterations 0
ExecutionTime = 0.06 s  ClockTime = 0 s

Time = 0.0723094

DEBUG cell=0 t=0.0717489→0.0723094 step=0.000560538 V=0.504337 u1=1.76254 u2=0.861133 u3=0 Iion=-1.46208
DEBUG cell=0 t=0.0717489→0.0723094 step=0.00504484 V=0.504337 u1=1.76333 u2=0.860682 u3=0 Iion=-1.46222
PIMPLE: iteration 1
DICPCG:  Solving for Vm, Initial residual = 0.000131099, Final residual = 8.78964e-16, No Iterations 5
PIMPLE: iteration 2
DICPCG:  Solving for Vm, Initial residual = 8.79857e-16, Final residual = 8.79857e-16, No Iterations 0
ExecutionTime = 0.06 s  ClockTime = 0 s

Time = 0.0728699

DEBUG cell=0 t=0.0723094→0.0728699 step=0.000560538 V=0.50447 u1=1.76333 u2=0.860682 u3=0 Iion=-1.46222
DEBUG cell=0 t=0.0723094→0.0728699 step=0.00504484 V=0.50447 u1=1.76412 u2=0.860233 u3=0 Iion=-1.46236
PIMPLE: iteration 1
DICPCG:  Solving for Vm, Initial residual = 0.000131031, Final residual = 8.78507e-16, No Iterations 5
PIMPLE: iteration 2
DICPCG:  Solving for Vm, Initial residual = 8.83587e-16, Final residual = 8.83587e-16, No Iterations 0
ExecutionTime = 0.06 s  ClockTime = 0 s

Time = 0.0734305

DEBUG cell=0 t=0.0728699→0.0734305 step=0.000560538 V=0.504602 u1=1.76412 u2=0.860233 u3=0 Iion=-1.46236
DEBUG cell=0 t=0.0728699→0.0734305 step=0.00504484 V=0.504602 u1=1.76491 u2=0.859784 u3=0 Iion=-1.4625
PIMPLE: iteration 1
DICPCG:  Solving for Vm, Initial residual = 0.000130963, Final residual = 8.7805e-16, No Iterations 5
PIMPLE: iteration 2
DICPCG:  Solving for Vm, Initial residual = 8.80719e-16, Final residual = 8.80719e-16, No Iterations 0
ExecutionTime = 0.06 s  ClockTime = 0 s

Time = 0.073991

DEBUG cell=0 t=0.0734305→0.073991 step=0.000560538 V=0.504734 u1=1.76491 u2=0.859784 u3=0 Iion=-1.4625
DEBUG cell=0 t=0.0734305→0.073991 step=0.00504484 V=0.504734 u1=1.7657 u2=0.859335 u3=0 Iion=-1.46263
PIMPLE: iteration 1
DICPCG:  Solving for Vm, Initial residual = 0.000130895, Final residual = 8.77593e-16, No Iterations 5
PIMPLE: iteration 2
DICPCG:  Solving for Vm, Initial residual = 8.77106e-16, Final residual = 8.77106e-16, No Iterations 0
ExecutionTime = 0.06 s  ClockTime = 0 s

Time = 0.0745516

DEBUG cell=0 t=0.073991→0.0745516 step=0.000560538 V=0.504866 u1=1.7657 u2=0.859335 u3=0 Iion=-1.46263
DEBUG cell=0 t=0.073991→0.0745516 step=0.00504484 V=0.504866 u1=1.76649 u2=0.858887 u3=0 Iion=-1.46277
PIMPLE: iteration 1
DICPCG:  Solving for Vm, Initial residual = 0.000130827, Final residual = 8.77137e-16, No Iterations 5
PIMPLE: iteration 2
DICPCG:  Solving for Vm, Initial residual = 8.79266e-16, Final residual = 8.79266e-16, No Iterations 0
ExecutionTime = 0.06 s  ClockTime = 0 s

Time = 0.0751121

DEBUG cell=0 t=0.0745516→0.0751121 step=0.000560538 V=0.504998 u1=1.76649 u2=0.858887 u3=0 Iion=-1.46277
DEBUG cell=0 t=0.0745516→0.0751121 step=0.00504484 V=0.504998 u1=1.76728 u2=0.858439 u3=0 Iion=-1.46291
PIMPLE: iteration 1
DICPCG:  Solving for Vm, Initial residual = 0.000130759, Final residual = 8.76682e-16, No Iterations 5
PIMPLE: iteration 2
DICPCG:  Solving for Vm, Initial residual = 8.84082e-16, Final residual = 8.84082e-16, No Iterations 0
ExecutionTime = 0.06 s  ClockTime = 0 s

Time = 0.0756726

DEBUG cell=0 t=0.0751121→0.0756726 step=0.000560538 V=0.50513 u1=1.76728 u2=0.858439 u3=0 Iion=-1.46291
DEBUG cell=0 t=0.0751121→0.0756726 step=0.00504484 V=0.50513 u1=1.76807 u2=0.857991 u3=0 Iion=-1.46305
PIMPLE: iteration 1
DICPCG:  Solving for Vm, Initial residual = 0.000130691, Final residual = 8.76227e-16, No Iterations 5
PIMPLE: iteration 2
DICPCG:  Solving for Vm, Initial residual = 8.79137e-16, Final residual = 8.79137e-16, No Iterations 0
ExecutionTime = 0.06 s  ClockTime = 0 s

Time = 0.0762332

DEBUG cell=0 t=0.0756726→0.0762332 step=0.000560538 V=0.505262 u1=1.76807 u2=0.857991 u3=0 Iion=-1.46305
DEBUG cell=0 t=0.0756726→0.0762332 step=0.00504484 V=0.505262 u1=1.76885 u2=0.857545 u3=0 Iion=-1.46318
PIMPLE: iteration 1
DICPCG:  Solving for Vm, Initial residual = 0.000130623, Final residual = 8.75772e-16, No Iterations 5
PIMPLE: iteration 2
DICPCG:  Solving for Vm, Initial residual = 8.78959e-16, Final residual = 8.78959e-16, No Iterations 0
ExecutionTime = 0.06 s  ClockTime = 0 s

Time = 0.0767937

DEBUG cell=0 t=0.0762332→0.0767937 step=0.000560538 V=0.505394 u1=1.76885 u2=0.857545 u3=0 Iion=-1.46318
DEBUG cell=0 t=0.0762332→0.0767937 step=0.00504484 V=0.505394 u1=1.76964 u2=0.857098 u3=0 Iion=-1.46332
PIMPLE: iteration 1
DICPCG:  Solving for Vm, Initial residual = 0.000130555, Final residual = 8.75318e-16, No Iterations 5
PIMPLE: iteration 2
DICPCG:  Solving for Vm, Initial residual = 8.76689e-16, Final residual = 8.76689e-16, No Iterations 0
ExecutionTime = 0.06 s  ClockTime = 0 s

Time = 0.0773542

DEBUG cell=0 t=0.0767937→0.0773542 step=0.000560538 V=0.505526 u1=1.76964 u2=0.857098 u3=0 Iion=-1.46332
DEBUG cell=0 t=0.0767937→0.0773542 step=0.00504484 V=0.505526 u1=1.77043 u2=0.856652 u3=0 Iion=-1.46346
PIMPLE: iteration 1
DICPCG:  Solving for Vm, Initial residual = 0.000130488, Final residual = 8.74864e-16, No Iterations 5
PIMPLE: iteration 2
DICPCG:  Solving for Vm, Initial residual = 8.76876e-16, Final residual = 8.76876e-16, No Iterations 0
ExecutionTime = 0.06 s  ClockTime = 0 s

Time = 0.0779148

DEBUG cell=0 t=0.0773542→0.0779148 step=0.000560538 V=0.505658 u1=1.77043 u2=0.856652 u3=0 Iion=-1.46346
DEBUG cell=0 t=0.0773542→0.0779148 step=0.00504484 V=0.505658 u1=1.77122 u2=0.856207 u3=0 Iion=-1.4636
PIMPLE: iteration 1
DICPCG:  Solving for Vm, Initial residual = 0.00013042, Final residual = 8.74411e-16, No Iterations 5
PIMPLE: iteration 2
DICPCG:  Solving for Vm, Initial residual = 8.82776e-16, Final residual = 8.82776e-16, No Iterations 0
ExecutionTime = 0.06 s  ClockTime = 0 s

Time = 0.0784753

DEBUG cell=0 t=0.0779148→0.0784753 step=0.000560538 V=0.50579 u1=1.77122 u2=0.856207 u3=0 Iion=-1.4636
DEBUG cell=0 t=0.0779148→0.0784753 step=0.00504484 V=0.50579 u1=1.77201 u2=0.855762 u3=0 Iion=-1.46374
PIMPLE: iteration 1
DICPCG:  Solving for Vm, Initial residual = 0.000130353, Final residual = 8.73958e-16, No Iterations 5
PIMPLE: iteration 2
DICPCG:  Solving for Vm, Initial residual = 8.80205e-16, Final residual = 8.80205e-16, No Iterations 0
ExecutionTime = 0.06 s  ClockTime = 0 s

Time = 0.0790359

DEBUG cell=0 t=0.0784753→0.0790359 step=0.000560538 V=0.505922 u1=1.77201 u2=0.855762 u3=0 Iion=-1.46374
DEBUG cell=0 t=0.0784753→0.0790359 step=0.00504484 V=0.505922 u1=1.7728 u2=0.855317 u3=0 Iion=-1.46387
PIMPLE: iteration 1
DICPCG:  Solving for Vm, Initial residual = 0.000130285, Final residual = 8.73506e-16, No Iterations 5
PIMPLE: iteration 2
DICPCG:  Solving for Vm, Initial residual = 8.77452e-16, Final residual = 8.77452e-16, No Iterations 0
ExecutionTime = 0.06 s  ClockTime = 0 s

Time = 0.0795964

DEBUG cell=0 t=0.0790359→0.0795964 step=0.000560538 V=0.506054 u1=1.7728 u2=0.855317 u3=0 Iion=-1.46387
DEBUG cell=0 t=0.0790359→0.0795964 step=0.00504484 V=0.506054 u1=1.77359 u2=0.854873 u3=0 Iion=-1.46401
PIMPLE: iteration 1
DICPCG:  Solving for Vm, Initial residual = 0.000130218, Final residual = 8.73054e-16, No Iterations 5
PIMPLE: iteration 2
DICPCG:  Solving for Vm, Initial residual = 8.75159e-16, Final residual = 8.75159e-16, No Iterations 0
ExecutionTime = 0.06 s  ClockTime = 0 s

Time = 0.0801569

DEBUG cell=0 t=0.0795964→0.0801569 step=0.000560538 V=0.506186 u1=1.77359 u2=0.854873 u3=0 Iion=-1.46401
DEBUG cell=0 t=0.0795964→0.0801569 step=0.00504484 V=0.506186 u1=1.77438 u2=0.854429 u3=0 Iion=-1.46415
PIMPLE: iteration 1
DICPCG:  Solving for Vm, Initial residual = 0.00013015, Final residual = 8.72603e-16, No Iterations 5
PIMPLE: iteration 2
DICPCG:  Solving for Vm, Initial residual = 8.78709e-16, Final residual = 8.78709e-16, No Iterations 0
ExecutionTime = 0.06 s  ClockTime = 0 s

Time = 0.0807175

DEBUG cell=0 t=0.0801569→0.0807175 step=0.000560538 V=0.506318 u1=1.77438 u2=0.854429 u3=0 Iion=-1.46415
DEBUG cell=0 t=0.0801569→0.0807175 step=0.00504484 V=0.506318 u1=1.77517 u2=0.853986 u3=0 Iion=-1.46429
PIMPLE: iteration 1
DICPCG:  Solving for Vm, Initial residual = 0.000130083, Final residual = 8.72152e-16, No Iterations 5
PIMPLE: iteration 2
DICPCG:  Solving for Vm, Initial residual = 8.73728e-16, Final residual = 8.73728e-16, No Iterations 0
ExecutionTime = 0.06 s  ClockTime = 0 s

Time = 0.081278

DEBUG cell=0 t=0.0807175→0.081278 step=0.000560538 V=0.506449 u1=1.77517 u2=0.853986 u3=0 Iion=-1.46429
DEBUG cell=0 t=0.0807175→0.081278 step=0.00504484 V=0.506449 u1=1.77596 u2=0.853544 u3=0 Iion=-1.46442
PIMPLE: iteration 1
DICPCG:  Solving for Vm, Initial residual = 0.000130016, Final residual = 8.71701e-16, No Iterations 5
PIMPLE: iteration 2
DICPCG:  Solving for Vm, Initial residual = 8.73404e-16, Final residual = 8.73404e-16, No Iterations 0
ExecutionTime = 0.06 s  ClockTime = 0 s

Time = 0.0818385

DEBUG cell=0 t=0.081278→0.0818385 step=0.000560538 V=0.506581 u1=1.77596 u2=0.853544 u3=0 Iion=-1.46442
DEBUG cell=0 t=0.081278→0.0818385 step=0.00504484 V=0.506581 u1=1.77675 u2=0.853101 u3=0 Iion=-1.46456
PIMPLE: iteration 1
DICPCG:  Solving for Vm, Initial residual = 0.000129949, Final residual = 8.71251e-16, No Iterations 5
PIMPLE: iteration 2
DICPCG:  Solving for Vm, Initial residual = 8.7319e-16, Final residual = 8.7319e-16, No Iterations 0
ExecutionTime = 0.06 s  ClockTime = 0 s

Time = 0.0823991

DEBUG cell=0 t=0.0818385→0.0823991 step=0.000560538 V=0.506713 u1=1.77675 u2=0.853101 u3=0 Iion=-1.46456
DEBUG cell=0 t=0.0818385→0.0823991 step=0.00504484 V=0.506713 u1=1.77754 u2=0.852659 u3=0 Iion=-1.4647
PIMPLE: iteration 1
DICPCG:  Solving for Vm, Initial residual = 0.000129882, Final residual = 8.70802e-16, No Iterations 5
PIMPLE: iteration 2
DICPCG:  Solving for Vm, Initial residual = 8.78354e-16, Final residual = 8.78354e-16, No Iterations 0
ExecutionTime = 0.06 s  ClockTime = 0 s

Time = 0.0829596

DEBUG cell=0 t=0.0823991→0.0829596 step=0.000560538 V=0.506844 u1=1.77754 u2=0.852659 u3=0 Iion=-1.4647
DEBUG cell=0 t=0.0823991→0.0829596 step=0.00504484 V=0.506844 u1=1.77833 u2=0.852218 u3=0 Iion=-1.46484
PIMPLE: iteration 1
DICPCG:  Solving for Vm, Initial residual = 0.000129815, Final residual = 8.70353e-16, No Iterations 5
PIMPLE: iteration 2
DICPCG:  Solving for Vm, Initial residual = 8.69553e-16, Final residual = 8.69553e-16, No Iterations 0
ExecutionTime = 0.06 s  ClockTime = 0 s

Time = 0.0835202

DEBUG cell=0 t=0.0829596→0.0835202 step=0.000560538 V=0.506976 u1=1.77833 u2=0.852218 u3=0 Iion=-1.46484
DEBUG cell=0 t=0.0829596→0.0835202 step=0.00504484 V=0.506976 u1=1.77912 u2=0.851777 u3=0 Iion=-1.46498
PIMPLE: iteration 1
DICPCG:  Solving for Vm, Initial residual = 0.000129748, Final residual = 8.69904e-16, No Iterations 5
PIMPLE: iteration 2
DICPCG:  Solving for Vm, Initial residual = 8.75055e-16, Final residual = 8.75055e-16, No Iterations 0
ExecutionTime = 0.06 s  ClockTime = 0 s

Time = 0.0840807

DEBUG cell=0 t=0.0835202→0.0840807 step=0.000560538 V=0.507108 u1=1.77912 u2=0.851777 u3=0 Iion=-1.46498
DEBUG cell=0 t=0.0835202→0.0840807 step=0.00504484 V=0.507108 u1=1.77991 u2=0.851337 u3=0 Iion=-1.46511
PIMPLE: iteration 1
DICPCG:  Solving for Vm, Initial residual = 0.000129681, Final residual = 8.69456e-16, No Iterations 5
PIMPLE: iteration 2
DICPCG:  Solving for Vm, Initial residual = 8.72613e-16, Final residual = 8.72613e-16, No Iterations 0
ExecutionTime = 0.06 s  ClockTime = 0 s

Time = 0.0846412

DEBUG cell=0 t=0.0840807→0.0846412 step=0.000560538 V=0.507239 u1=1.77991 u2=0.851337 u3=0 Iion=-1.46511
DEBUG cell=0 t=0.0840807→0.0846412 step=0.00504484 V=0.507239 u1=1.7807 u2=0.850897 u3=0 Iion=-1.46525
PIMPLE: iteration 1
[...]
ExecutionTime = 0.11 s  ClockTime = 0 s

Time = 0.179372

DEBUG cell=0 t=0.178812→0.179372 step=0.000560538 V=0.529007 u1=1.91281 u2=0.782924 u3=0 Iion=-1.48879
DEBUG cell=0 t=0.178812→0.179372 step=0.00504484 V=0.529007 u1=1.9136 u2=0.782552 u3=0 Iion=-1.48893
PIMPLE: iteration 1
DICPCG:  Solving for Vm, Initial residual = 0.000119242, Final residual = 7.99473e-16, No Iterations 5
PIMPLE: iteration 2
DICPCG:  Solving for Vm, Initial residual = 8.01248e-16, Final residual = 8.01248e-16, No Iterations 0
ExecutionTime = 0.11 s  ClockTime = 0 s

Time = 0.179933

DEBUG cell=0 t=0.179372→0.179933 step=0.000560538 V=0.529133 u1=1.9136 u2=0.782552 u3=0 Iion=-1.48893
DEBUG cell=0 t=0.179372→0.179933 step=0.00504484 V=0.529133 u1=1.91438 u2=0.78218 u3=0 Iion=-1.48907
PIMPLE: iteration 1
DICPCG:  Solving for Vm, Initial residual = 0.000119186, Final residual = 7.99094e-16, No Iterations 5
PIMPLE: iteration 2
DICPCG:  Solving for Vm, Initial residual = 8.04032e-16, Final residual = 8.04032e-16, No Iterations 0
ExecutionTime = 0.11 s  ClockTime = 0 s

Time = 0.180493

DEBUG cell=0 t=0.179933→0.180493 step=0.000560538 V=0.52926 u1=1.91438 u2=0.78218 u3=0 Iion=-1.48907
DEBUG cell=0 t=0.179933→0.180493 step=0.00504484 V=0.52926 u1=1.91516 u2=0.781809 u3=0 Iion=-1.48921
PIMPLE: iteration 1
DICPCG:  Solving for Vm, Initial residual = 0.000119129, Final residual = 7.98717e-16, No Iterations 5
PIMPLE: iteration 2
DICPCG:  Solving for Vm, Initial residual = 8.02381e-16, Final residual = 8.02381e-16, No Iterations 0
ExecutionTime = 0.11 s  ClockTime = 0 s

Time = 0.181054

DEBUG cell=0 t=0.180493→0.181054 step=0.000560538 V=0.529386 u1=1.91516 u2=0.781809 u3=0 Iion=-1.48921
DEBUG cell=0 t=0.180493→0.181054 step=0.00504484 V=0.529386 u1=1.91595 u2=0.781437 u3=0 Iion=-1.48935
PIMPLE: iteration 1
DICPCG:  Solving for Vm, Initial residual = 0.000119073, Final residual = 7.98339e-16, No Iterations 5
PIMPLE: iteration 2
DICPCG:  Solving for Vm, Initial residual = 8.01118e-16, Final residual = 8.01118e-16, No Iterations 0
ExecutionTime = 0.11 s  ClockTime = 0 s

Time = 0.181614

DEBUG cell=0 t=0.181054→0.181614 step=0.000560538 V=0.529512 u1=1.91595 u2=0.781437 u3=0 Iion=-1.48935
DEBUG cell=0 t=0.181054→0.181614 step=0.00504484 V=0.529512 u1=1.91673 u2=0.781067 u3=0 Iion=-1.4895
PIMPLE: iteration 1
DICPCG:  Solving for Vm, Initial residual = 0.000119017, Final residual = 7.97962e-16, No Iterations 5
PIMPLE: iteration 2
DICPCG:  Solving for Vm, Initial residual = 8.04016e-16, Final residual = 8.04016e-16, No Iterations 0
ExecutionTime = 0.11 s  ClockTime = 0 s

Time = 0.182175

DEBUG cell=0 t=0.181614→0.182175 step=0.000560538 V=0.529638 u1=1.91673 u2=0.781067 u3=0 Iion=-1.4895
DEBUG cell=0 t=0.181614→0.182175 step=0.00504484 V=0.529638 u1=1.91752 u2=0.780696 u3=0 Iion=-1.48964
PIMPLE: iteration 1
DICPCG:  Solving for Vm, Initial residual = 0.000118961, Final residual = 7.97585e-16, No Iterations 5
PIMPLE: iteration 2
DICPCG:  Solving for Vm, Initial residual = 8.01489e-16, Final residual = 8.01489e-16, No Iterations 0
ExecutionTime = 0.11 s  ClockTime = 0 s

Time = 0.182735

DEBUG cell=0 t=0.182175→0.182735 step=0.000560538 V=0.529764 u1=1.91752 u2=0.780696 u3=0 Iion=-1.48964
DEBUG cell=0 t=0.182175→0.182735 step=0.00504484 V=0.529764 u1=1.9183 u2=0.780326 u3=0 Iion=-1.48978
PIMPLE: iteration 1
DICPCG:  Solving for Vm, Initial residual = 0.000118904, Final residual = 7.97209e-16, No Iterations 5
PIMPLE: iteration 2
DICPCG:  Solving for Vm, Initial residual = 8.05768e-16, Final residual = 8.05768e-16, No Iterations 0
ExecutionTime = 0.11 s  ClockTime = 0 s

Time = 0.183296

DEBUG cell=0 t=0.182735→0.183296 step=0.000560538 V=0.52989 u1=1.9183 u2=0.780326 u3=0 Iion=-1.48978
DEBUG cell=0 t=0.182735→0.183296 step=0.00504484 V=0.52989 u1=1.91908 u2=0.779957 u3=0 Iion=-1.48992
PIMPLE: iteration 1
DICPCG:  Solving for Vm, Initial residual = 0.000118848, Final residual = 7.96833e-16, No Iterations 5
PIMPLE: iteration 2
DICPCG:  Solving for Vm, Initial residual = 8.011e-16, Final residual = 8.011e-16, No Iterations 0
ExecutionTime = 0.11 s  ClockTime = 0 s

Time = 0.183856

DEBUG cell=0 t=0.183296→0.183856 step=0.000560538 V=0.530016 u1=1.91908 u2=0.779957 u3=0 Iion=-1.48992
DEBUG cell=0 t=0.183296→0.183856 step=0.00504484 V=0.530016 u1=1.91987 u2=0.779588 u3=0 Iion=-1.49006
PIMPLE: iteration 1
DICPCG:  Solving for Vm, Initial residual = 0.000118792, Final residual = 7.96457e-16, No Iterations 5
PIMPLE: iteration 2
DICPCG:  Solving for Vm, Initial residual = 8.00817e-16, Final residual = 8.00817e-16, No Iterations 0
ExecutionTime = 0.11 s  ClockTime = 0 s

Time = 0.184417

DEBUG cell=0 t=0.183856→0.184417 step=0.000560538 V=0.530142 u1=1.91987 u2=0.779588 u3=0 Iion=-1.49006
DEBUG cell=0 t=0.183856→0.184417 step=0.00504484 V=0.530142 u1=1.92065 u2=0.779219 u3=0 Iion=-1.49021
PIMPLE: iteration 1
DICPCG:  Solving for Vm, Initial residual = 0.000118736, Final residual = 7.96081e-16, No Iterations 5
PIMPLE: iteration 2
DICPCG:  Solving for Vm, Initial residual = 8.02985e-16, Final residual = 8.02985e-16, No Iterations 0
ExecutionTime = 0.11 s  ClockTime = 0 s

Time = 0.184978

DEBUG cell=0 t=0.184417→0.184978 step=0.000560538 V=0.530268 u1=1.92065 u2=0.779219 u3=0 Iion=-1.49021
DEBUG cell=0 t=0.184417→0.184978 step=0.00504484 V=0.530268 u1=1.92143 u2=0.77885 u3=0 Iion=-1.49035
PIMPLE: iteration 1
DICPCG:  Solving for Vm, Initial residual = 0.00011868, Final residual = 7.95706e-16, No Iterations 5
PIMPLE: iteration 2
DICPCG:  Solving for Vm, Initial residual = 7.99001e-16, Final residual = 7.99001e-16, No Iterations 0
ExecutionTime = 0.11 s  ClockTime = 0 s

Time = 0.185538

DEBUG cell=0 t=0.184978→0.185538 step=0.000560538 V=0.530394 u1=1.92143 u2=0.77885 u3=0 Iion=-1.49035
DEBUG cell=0 t=0.184978→0.185538 step=0.00504484 V=0.530394 u1=1.92222 u2=0.778482 u3=0 Iion=-1.49049
PIMPLE: iteration 1
DICPCG:  Solving for Vm, Initial residual = 0.000118624, Final residual = 7.95332e-16, No Iterations 5
PIMPLE: iteration 2
DICPCG:  Solving for Vm, Initial residual = 8.02632e-16, Final residual = 8.02632e-16, No Iterations 0
ExecutionTime = 0.12 s  ClockTime = 0 s

Time = 0.186099

DEBUG cell=0 t=0.185538→0.186099 step=0.000560538 V=0.530519 u1=1.92222 u2=0.778482 u3=0 Iion=-1.49049
DEBUG cell=0 t=0.185538→0.186099 step=0.00504484 V=0.530519 u1=1.923 u2=0.778114 u3=0 Iion=-1.49063
PIMPLE: iteration 1
DICPCG:  Solving for Vm, Initial residual = 0.000118569, Final residual = 7.94957e-16, No Iterations 5
PIMPLE: iteration 2
DICPCG:  Solving for Vm, Initial residual = 8.03276e-16, Final residual = 8.03276e-16, No Iterations 0
ExecutionTime = 0.12 s  ClockTime = 0 s

Time = 0.186659

DEBUG cell=0 t=0.186099→0.186659 step=0.000560538 V=0.530645 u1=1.923 u2=0.778114 u3=0 Iion=-1.49063
DEBUG cell=0 t=0.186099→0.186659 step=0.00504484 V=0.530645 u1=1.92378 u2=0.777746 u3=0 Iion=-1.49077
PIMPLE: iteration 1
DICPCG:  Solving for Vm, Initial residual = 0.000118513, Final residual = 7.94583e-16, No Iterations 5
PIMPLE: iteration 2
DICPCG:  Solving for Vm, Initial residual = 7.9679e-16, Final residual = 7.9679e-16, No Iterations 0
ExecutionTime = 0.12 s  ClockTime = 0 s

Time = 0.18722

DEBUG cell=0 t=0.186659→0.18722 step=0.000560538 V=0.530771 u1=1.92378 u2=0.777746 u3=0 Iion=-1.49077
DEBUG cell=0 t=0.186659→0.18722 step=0.00504484 V=0.530771 u1=1.92457 u2=0.777379 u3=0 Iion=-1.49092
PIMPLE: iteration 1
DICPCG:  Solving for Vm, Initial residual = 0.000118457, Final residual = 7.9421e-16, No Iterations 5
PIMPLE: iteration 2
DICPCG:  Solving for Vm, Initial residual = 7.99449e-16, Final residual = 7.99449e-16, No Iterations 0
ExecutionTime = 0.12 s  ClockTime = 0 s

Time = 0.18778

DEBUG cell=0 t=0.18722→0.18778 step=0.000560538 V=0.530897 u1=1.92457 u2=0.777379 u3=0 Iion=-1.49092
DEBUG cell=0 t=0.18722→0.18778 step=0.00504484 V=0.530897 u1=1.92535 u2=0.777012 u3=0 Iion=-1.49106
PIMPLE: iteration 1
DICPCG:  Solving for Vm, Initial residual = 0.000118401, Final residual = 7.93837e-16, No Iterations 5
PIMPLE: iteration 2
DICPCG:  Solving for Vm, Initial residual = 7.99197e-16, Final residual = 7.99197e-16, No Iterations 0
ExecutionTime = 0.12 s  ClockTime = 0 s

Time = 0.188341

DEBUG cell=0 t=0.18778→0.188341 step=0.000560538 V=0.531023 u1=1.92535 u2=0.777012 u3=0 Iion=-1.49106
DEBUG cell=0 t=0.18778→0.188341 step=0.00504484 V=0.531023 u1=1.92613 u2=0.776646 u3=0 Iion=-1.4912
PIMPLE: iteration 1
DICPCG:  Solving for Vm, Initial residual = 0.000118346, Final residual = 7.93464e-16, No Iterations 5
PIMPLE: iteration 2
DICPCG:  Solving for Vm, Initial residual = 7.97108e-16, Final residual = 7.97108e-16, No Iterations 0
ExecutionTime = 0.12 s  ClockTime = 0 s

Time = 0.188901

DEBUG cell=0 t=0.188341→0.188901 step=0.000560538 V=0.531148 u1=1.92613 u2=0.776646 u3=0 Iion=-1.4912
DEBUG cell=0 t=0.188341→0.188901 step=0.00504484 V=0.531148 u1=1.92692 u2=0.77628 u3=0 Iion=-1.49134
PIMPLE: iteration 1
DICPCG:  Solving for Vm, Initial residual = 0.00011829, Final residual = 7.93091e-16, No Iterations 5
PIMPLE: iteration 2
DICPCG:  Solving for Vm, Initial residual = 8.00889e-16, Final residual = 8.00889e-16, No Iterations 0
ExecutionTime = 0.12 s  ClockTime = 0 s

Time = 0.189462

DEBUG cell=0 t=0.188901→0.189462 step=0.000560538 V=0.531274 u1=1.92692 u2=0.77628 u3=0 Iion=-1.49134
DEBUG cell=0 t=0.188901→0.189462 step=0.00504484 V=0.531274 u1=1.9277 u2=0.775914 u3=0 Iion=-1.49148
PIMPLE: iteration 1
DICPCG:  Solving for Vm, Initial residual = 0.000118235, Final residual = 7.92719e-16, No Iterations 5
PIMPLE: iteration 2
DICPCG:  Solving for Vm, Initial residual = 7.9654e-16, Final residual = 7.9654e-16, No Iterations 0
ExecutionTime = 0.12 s  ClockTime = 0 s

Time = 0.190022

DEBUG cell=0 t=0.189462→0.190022 step=0.000560538 V=0.5314 u1=1.9277 u2=0.775914 u3=0 Iion=-1.49148
DEBUG cell=0 t=0.189462→0.190022 step=0.00504484 V=0.5314 u1=1.92848 u2=0.775548 u3=0 Iion=-1.49163
PIMPLE: iteration 1
DICPCG:  Solving for Vm, Initial residual = 0.000118179, Final residual = 7.92347e-16, No Iterations 5
PIMPLE: iteration 2
DICPCG:  Solving for Vm, Initial residual = 7.92265e-16, Final residual = 7.92265e-16, No Iterations 0
ExecutionTime = 0.12 s  ClockTime = 0 s

Time = 0.190583

DEBUG cell=0 t=0.190022→0.190583 step=0.000560538 V=0.531525 u1=1.92848 u2=0.775548 u3=0 Iion=-1.49163
DEBUG cell=0 t=0.190022→0.190583 step=0.00504484 V=0.531525 u1=1.92927 u2=0.775183 u3=0 Iion=-1.49177
PIMPLE: iteration 1
DICPCG:  Solving for Vm, Initial residual = 0.000118124, Final residual = 7.91976e-16, No Iterations 5
PIMPLE: iteration 2
DICPCG:  Solving for Vm, Initial residual = 8.00511e-16, Final residual = 8.00511e-16, No Iterations 0
ExecutionTime = 0.12 s  ClockTime = 0 s

Time = 0.191143

DEBUG cell=0 t=0.190583→0.191143 step=0.000560538 V=0.531651 u1=1.92927 u2=0.775183 u3=0 Iion=-1.49177
DEBUG cell=0 t=0.190583→0.191143 step=0.00504484 V=0.531651 u1=1.93005 u2=0.774819 u3=0 Iion=-1.49191
PIMPLE: iteration 1
DICPCG:  Solving for Vm, Initial residual = 0.000118068, Final residual = 7.91604e-16, No Iterations 5
PIMPLE: iteration 2
DICPCG:  Solving for Vm, Initial residual = 8.00896e-16, Final residual = 8.00896e-16, No Iterations 0
ExecutionTime = 0.12 s  ClockTime = 0 s

Time = 0.191704

DEBUG cell=0 t=0.191143→0.191704 step=0.000560538 V=0.531776 u1=1.93005 u2=0.774819 u3=0 Iion=-1.49191
DEBUG cell=0 t=0.191143→0.191704 step=0.00504484 V=0.531776 u1=1.93083 u2=0.774454 u3=0 Iion=-1.49205
PIMPLE: iteration 1
DICPCG:  Solving for Vm, Initial residual = 0.000118013, Final residual = 7.91234e-16, No Iterations 5
PIMPLE: iteration 2
DICPCG:  Solving for Vm, Initial residual = 7.89642e-16, Final residual = 7.89642e-16, No Iterations 0
ExecutionTime = 0.12 s  ClockTime = 0 s

Time = 0.192265

DEBUG cell=0 t=0.191704→0.192265 step=0.000560538 V=0.531902 u1=1.93083 u2=0.774454 u3=0 Iion=-1.49205
DEBUG cell=0 t=0.191704→0.192265 step=0.00504484 V=0.531902 u1=1.93162 u2=0.77409 u3=0 Iion=-1.4922
PIMPLE: iteration 1
DICPCG:  Solving for Vm, Initial residual = 0.000117958, Final residual = 7.90863e-16, No Iterations 5
PIMPLE: iteration 2
DICPCG:  Solving for Vm, Initial residual = 8.00094e-16, Final residual = 8.00094e-16, No Iterations 0
ExecutionTime = 0.12 s  ClockTime = 0 s

Time = 0.192825

DEBUG cell=0 t=0.192265→0.192825 step=0.000560538 V=0.532027 u1=1.93162 u2=0.77409 u3=0 Iion=-1.4922
DEBUG cell=0 t=0.192265→0.192825 step=0.00504484 V=0.532027 u1=1.9324 u2=0.773726 u3=0 Iion=-1.49234
PIMPLE: iteration 1
DICPCG:  Solving for Vm, Initial residual = 0.000117903, Final residual = 7.90493e-16, No Iterations 5
PIMPLE: iteration 2
DICPCG:  Solving for Vm, Initial residual = 7.99234e-16, Final residual = 7.99234e-16, No Iterations 0
ExecutionTime = 0.12 s  ClockTime = 0 s

Time = 0.193386

DEBUG cell=0 t=0.192825→0.193386 step=0.000560538 V=0.532153 u1=1.9324 u2=0.773726 u3=0 Iion=-1.49234
DEBUG cell=0 t=0.192825→0.193386 step=0.00504484 V=0.532153 u1=1.93318 u2=0.773363 u3=0 Iion=-1.49248
PIMPLE: iteration 1
DICPCG:  Solving for Vm, Initial residual = 0.000117848, Final residual = 7.90123e-16, No Iterations 5
PIMPLE: iteration 2
DICPCG:  Solving for Vm, Initial residual = 7.9389e-16, Final residual = 7.9389e-16, No Iterations 0
ExecutionTime = 0.12 s  ClockTime = 0 s

Time = 0.193946

DEBUG cell=0 t=0.193386→0.193946 step=0.000560538 V=0.532278 u1=1.93318 u2=0.773363 u3=0 Iion=-1.49248
DEBUG cell=0 t=0.193386→0.193946 step=0.00504484 V=0.532278 u1=1.93396 u2=0.773 u3=0 Iion=-1.49262
PIMPLE: iteration 1
DICPCG:  Solving for Vm, Initial residual = 0.000117792, Final residual = 7.89754e-16, No Iterations 5
PIMPLE: iteration 2
DICPCG:  Solving for Vm, Initial residual = 7.97265e-16, Final residual = 7.97265e-16, No Iterations 0
ExecutionTime = 0.12 s  ClockTime = 0 s

Time = 0.194507

DEBUG cell=0 t=0.193946→0.194507 step=0.000560538 V=0.532404 u1=1.93396 u2=0.773 u3=0 Iion=-1.49262
DEBUG cell=0 t=0.193946→0.194507 step=0.00504484 V=0.532404 u1=1.93475 u2=0.772637 u3=0 Iion=-1.49276
PIMPLE: iteration 1
DICPCG:  Solving for Vm, Initial residual = 0.000117737, Final residual = 7.89385e-16, No Iterations 5
PIMPLE: iteration 2
DICPCG:  Solving for Vm, Initial residual = 7.91253e-16, Final residual = 7.91253e-16, No Iterations 0
ExecutionTime = 0.12 s  ClockTime = 0 s

Time = 0.195067

DEBUG cell=0 t=0.194507→0.195067 step=0.000560538 V=0.532529 u1=1.93475 u2=0.772637 u3=0 Iion=-1.49276
DEBUG cell=0 t=0.194507→0.195067 step=0.00504484 V=0.532529 u1=1.93553 u2=0.772275 u3=0 Iion=-1.49291
PIMPLE: iteration 1
DICPCG:  Solving for Vm, Initial residual = 0.000117682, Final residual = 7.89016e-16, No Iterations 5
PIMPLE: iteration 2
DICPCG:  Solving for Vm, Initial residual = 7.89908e-16, Final residual = 7.89908e-16, No Iterations 0
ExecutionTime = 0.12 s  ClockTime = 0 s

Time = 0.195628

DEBUG cell=0 t=0.195067→0.195628 step=0.000560538 V=0.532654 u1=1.93553 u2=0.772275 u3=0 Iion=-1.49291
DEBUG cell=0 t=0.195067→0.195628 step=0.00504484 V=0.532654 u1=1.93631 u2=0.771913 u3=0 Iion=-1.49305
PIMPLE: iteration 1
DICPCG:  Solving for Vm, Initial residual = 0.000117627, Final residual = 7.88648e-16, No Iterations 5
PIMPLE: iteration 2
DICPCG:  Solving for Vm, Initial residual = 7.9631e-16, Final residual = 7.9631e-16, No Iterations 0
ExecutionTime = 0.12 s  ClockTime = 0 s

Time = 0.196188

DEBUG cell=0 t=0.195628→0.196188 step=0.000560538 V=0.53278 u1=1.93631 u2=0.771913 u3=0 Iion=-1.49305
DEBUG cell=0 t=0.195628→0.196188 step=0.00504484 V=0.53278 u1=1.9371 u2=0.771551 u3=0 Iion=-1.49319
PIMPLE: iteration 1
DICPCG:  Solving for Vm, Initial residual = 0.000117573, Final residual = 7.8828e-16, No Iterations 5
PIMPLE: iteration 2
DICPCG:  Solving for Vm, Initial residual = 7.96899e-16, Final residual = 7.96899e-16, No Iterations 0
ExecutionTime = 0.12 s  ClockTime = 0 s

Time = 0.196749

DEBUG cell=0 t=0.196188→0.196749 step=0.000560538 V=0.532905 u1=1.9371 u2=0.771551 u3=0 Iion=-1.49319
DEBUG cell=0 t=0.196188→0.196749 step=0.00504484 V=0.532905 u1=1.93788 u2=0.77119 u3=0 Iion=-1.49333
PIMPLE: iteration 1
DICPCG:  Solving for Vm, Initial residual = 0.000117518, Final residual = 7.87912e-16, No Iterations 5
PIMPLE: iteration 2
DICPCG:  Solving for Vm, Initial residual = 7.93001e-16, Final residual = 7.93001e-16, No Iterations 0
ExecutionTime = 0.12 s  ClockTime = 0 s

Time = 0.197309

DEBUG cell=0 t=0.196749→0.197309 step=0.000560538 V=0.53303 u1=1.93788 u2=0.77119 u3=0 Iion=-1.49333
DEBUG cell=0 t=0.196749→0.197309 step=0.00504484 V=0.53303 u1=1.93866 u2=0.770829 u3=0 Iion=-1.49348
PIMPLE: iteration 1
DICPCG:  Solving for Vm, Initial residual = 0.000117463, Final residual = 7.87545e-16, No Iterations 5
PIMPLE: iteration 2
DICPCG:  Solving for Vm, Initial residual = 7.97111e-16, Final residual = 7.97111e-16, No Iterations 0
ExecutionTime = 0.12 s  ClockTime = 0 s

Time = 0.19787

DEBUG cell=0 t=0.197309→0.19787 step=0.000560538 V=0.533156 u1=1.93866 u2=0.770829 u3=0 Iion=-1.49348
DEBUG cell=0 t=0.197309→0.19787 step=0.00504484 V=0.533156 u1=1.93944 u2=0.770468 u3=0 Iion=-1.49362
PIMPLE: iteration 1
DICPCG:  Solving for Vm, Initial residual = 0.000117408, Final residual = 7.87178e-16, No Iterations 5
PIMPLE: iteration 2
DICPCG:  Solving for Vm, Initial residual = 7.89045e-16, Final residual = 7.89045e-16, No Iterations 0
ExecutionTime = 0.12 s  ClockTime = 0 s

Time = 0.19843

DEBUG cell=0 t=0.19787→0.19843 step=0.000560538 V=0.533281 u1=1.93944 u2=0.770468 u3=0 Iion=-1.49362
DEBUG cell=0 t=0.19787→0.19843 step=0.00504484 V=0.533281 u1=1.94023 u2=0.770108 u3=0 Iion=-1.49376
PIMPLE: iteration 1
DICPCG:  Solving for Vm, Initial residual = 0.000117354, Final residual = 7.86811e-16, No Iterations 5
PIMPLE: iteration 2
DICPCG:  Solving for Vm, Initial residual = 7.9154e-16, Final residual = 7.9154e-16, No Iterations 0
ExecutionTime = 0.12 s  ClockTime = 0 s

Time = 0.198991

DEBUG cell=0 t=0.19843→0.198991 step=0.000560538 V=0.533406 u1=1.94023 u2=0.770108 u3=0 Iion=-1.49376
DEBUG cell=0 t=0.19843→0.198991 step=0.00504484 V=0.533406 u1=1.94101 u2=0.769748 u3=0 Iion=-1.4939
PIMPLE: iteration 1
DICPCG:  Solving for Vm, Initial residual = 0.000117299, Final residual = 7.86445e-16, No Iterations 5
PIMPLE: iteration 2
DICPCG:  Solving for Vm, Initial residual = 7.92912e-16, Final residual = 7.92912e-16, No Iterations 0
ExecutionTime = 0.12 s  ClockTime = 0 s

Time = 0.199552

DEBUG cell=0 t=0.198991→0.199552 step=0.000560538 V=0.533531 u1=1.94101 u2=0.769748 u3=0 Iion=-1.4939
DEBUG cell=0 t=0.198991→0.199552 step=0.00504484 V=0.533531 u1=1.94179 u2=0.769388 u3=0 Iion=-1.49405
PIMPLE: iteration 1
DICPCG:  Solving for Vm, Initial residual = 0.000117244, Final residual = 7.86079e-16, No Iterations 5
PIMPLE: iteration 2
DICPCG:  Solving for Vm, Initial residual = 7.90463e-16, Final residual = 7.90463e-16, No Iterations 0
ExecutionTime = 0.12 s  ClockTime = 0 s

Time = 0.200112

DEBUG cell=0 t=0.199552→0.200112 step=0.000560538 V=0.533656 u1=1.94179 u2=0.769388 u3=0 Iion=-1.49405
DEBUG cell=0 t=0.199552→0.200112 step=0.00504484 V=0.533656 u1=1.94258 u2=0.769029 u3=0 Iion=-1.49419
PIMPLE: iteration 1
DICPCG:  Solving for Vm, Initial residual = 0.00011719, Final residual = 7.85713e-16, No Iterations 5
PIMPLE: iteration 2
DICPCG:  Solving for Vm, Initial residual = 7.94323e-16, Final residual = 7.94323e-16, No Iterations 0
Running postProcess via tmanufacturedFDA.

Simulation summary:
-------------------
Number of cells (N)   = 40
Solver type           = Implicit
Grid spacing (dx)     = 0.025
Time step (dt)        = 0.000560538
Number of steps       = 357
Final simulation time = 0.200112
-------------------

Manufactured-solution error summary (t = 0.200112):
-------------------------------------------------
Field     L1-error       L2-error       Linf-error
Vm     0.000121687   0.000149973   0.000309121
u1     4.87194e-07   7.86414e-07   2.93635e-06
u2     1.76485e-07   2.83719e-07   1.11274e-06
-------------------------------------------------

ExecutionTime = 0.12 s  ClockTime = 0 s


End

Finalising parallel run
