/*---------------------------------------------------------------------------*\
| =========                 |                                                 |
| \\      /  F ield         | OpenFOAM: The Open Source CFD Toolbox           |
|  \\    /   O peration     | Version:  2312                                  |
|   \\  /    A nd           | Website:  www.openfoam.com                      |
|    \\/     M anipulation  |                                                 |
\*---------------------------------------------------------------------------*/
Build  : 39362aec25-20240625 OPENFOAM=2312 patch=240625 version=v2312
Arch   : "LSB;label=32;scalar=64"
Exec   : extrudeMesh
Date   : Mar 18 2025
Time   : 15:02:47
Host   : Aarons-MacBook-Pro.local
PID    : 7425
I/O    : uncollated
Case   : /Volumes/OpenFoam/aaronmullen-hales-v2312/run/PHDS1/cardiacFoam/tutorials/LandEtAl2015/problem2/run_Apple_M4_Pro_20250318_150243/hex.hypre.4
nProcs : 1
trapFpe: Floating point exception trapping enabled (FOAM_SIGFPE).
fileModificationChecking : Monitoring run-time modified files using timeStampMaster (fileModificationSkew 5, maxFileModificationPolls 20)
allowSystemOperations : Allowing user-supplied system call operations

// * * * * * * * * * * * * * * * * * * * * * * * * * * * * * * * * * * * * * //
Create time

Create mesh for time = 0

Selecting extrudeModel sector
Selected extrudeModel for sector using coeffs 
{
    point           ( 0 0 0 );
    axis            ( 0 0 1 );
    angle           360;
}

Extruding from patch using model sector
Flipping normals before extruding
Collapsing edges < 1e-09 of bounding box

Extruding patches 1(top) on mesh "/Volumes/OpenFoam/aaronmullen-hales-v2312/run/PHDS1/cardiacFoam/tutorials/LandEtAl2015/problem2/run_Apple_M4_Pro_20250318_150243/hex.hypre.4"

Create mesh for time = 0

Adding overall 0 processor patches.
Mesh bounding box : (-0.00999987 -0.00999987 -0.02) (0.00999987 0.00999987 0.005)
        with span : (0.0199997 0.0199997 0.025)
Merge distance    : 1.99997e-11

Collapsing edges < 1.99997e-11 ...

Merging edge (3000 867025) since length 0 << 1.99997e-11
Merging edge (3001 867313) since length 0 << 1.99997e-11
Merging edge (3002 867601) since length 0 << 1.99997e-11
Merging edge (3003 867889) since length 0 << 1.99997e-11
Merging edge (3004 868177) since length 0 << 1.99997e-11
Merging edge (3005 868465) since length 0 << 1.99997e-11
Merging edge (3006 868753) since length 0 << 1.99997e-11
Merging edge (3007 869041) since length 0 << 1.99997e-11
Merging edge (3008 869329) since length 0 << 1.99997e-11
Merging edge (3009 869617) since length 0 << 1.99997e-11
Merging edge (3010 869905) since length 0 << 1.99997e-11
Merging edge (3011 870193) since length 0 << 1.99997e-11
Merging edge (3012 870481) since length 0 << 1.99997e-11
Merging edge (3013 870769) since length 0 << 1.99997e-11
Merging edge (3014 871057) since length 0 << 1.99997e-11
Merging edge (3015 871345) since length 0 << 1.99997e-11
Merging edge (3016 871633) since length 0 << 1.99997e-11
Merging edge (3017 871921) since length 0 << 1.99997e-11
Merging edge (3018 872209) since length 0 << 1.99997e-11
Merging edge (3019 872497) since length 0 << 1.99997e-11
Merging edge (3020 872785) since length 0 << 1.99997e-11
Merging edge (3021 873073) since length 0 << 1.99997e-11
Merging edge (3022 873361) since length 0 << 1.99997e-11
Merging edge (3023 873649) since length 0 << 1.99997e-11
Merging edge (3024 873937) since length 0 << 1.99997e-11
Merging edge (867025 867026) since length 0 << 1.99997e-11
Merging edge (867026 867027) since length 0 << 1.99997e-11
Merging edge (867027 867028) since length 0 << 1.99997e-11
Merging edge (867028 867029) since length 0 << 1.99997e-11
Merging edge (867029 867030) since length 0 << 1.99997e-11
Merging edge (867030 867031) since length 0 << 1.99997e-11
Merging edge (867031 867032) since length 0 << 1.99997e-11
Merging edge (867032 867033) since length 0 << 1.99997e-11
Merging edge (867033 867034) since length 0 << 1.99997e-11
Merging edge (867034 867035) since length 0 << 1.99997e-11
Merging edge (867035 867036) since length 0 << 1.99997e-11
Merging edge (867036 867037) since length 0 << 1.99997e-11
Merging edge (867037 867038) since length 0 << 1.99997e-11
Merging edge (867038 867039) since length 0 << 1.99997e-11
Merging edge (867039 867040) since length 0 << 1.99997e-11
Merging edge (867040 867041) since length 0 << 1.99997e-11
Merging edge (867041 867042) since length 0 << 1.99997e-11
Merging edge (867042 867043) since length 0 << 1.99997e-11
Merging edge (867043 867044) since length 0 << 1.99997e-11
Merging edge (867044 867045) since length 0 << 1.99997e-11
Merging edge (867045 867046) since length 0 << 1.99997e-11
Merging edge (867046 867047) since length 0 << 1.99997e-11
Merging edge (867047 867048) since length 0 << 1.99997e-11
Merging edge (867048 867049) since length 0 << 1.99997e-11
Merging edge (867049 867050) since length 0 << 1.99997e-11
Merging edge (867050 867051) since length 0 << 1.99997e-11
Merging edge (867051 867052) since length 0 << 1.99997e-11
Merging edge (867052 867053) since length 0 << 1.99997e-11
Merging edge (867053 867054) since length 0 << 1.99997e-11
Merging edge (867054 867055) since length 0 << 1.99997e-11
Merging edge (867055 867056) since length 0 << 1.99997e-11
Merging edge (867056 867057) since length 0 << 1.99997e-11
Merging edge (867057 867058) since length 0 << 1.99997e-11
Merging edge (867058 867059) since length 0 << 1.99997e-11
Merging edge (867059 867060) since length 0 << 1.99997e-11
Merging edge (867060 867061) since length 0 << 1.99997e-11
Merging edge (867061 867062) since length 0 << 1.99997e-11
Merging edge (867062 867063) since length 0 << 1.99997e-11
Merging edge (867063 867064) since length 0 << 1.99997e-11
Merging edge (867064 867065) since length 0 << 1.99997e-11
Merging edge (867065 867066) since length 0 << 1.99997e-11
Merging edge (867066 867067) since length 0 << 1.99997e-11
Merging edge (867067 867068) since length 0 << 1.99997e-11
Merging edge (867068 867069) since length 0 << 1.99997e-11
Merging edge (867069 867070) since length 0 << 1.99997e-11
Merging edge (867070 867071) since length 0 << 1.99997e-11
Merging edge (867071 867072) since length 0 << 1.99997e-11
Merging edge (867072 867073) since length 0 << 1.99997e-11
Merging edge (867073 867074) since length 0 << 1.99997e-11
Merging edge (867074 867075) since length 0 << 1.99997e-11
Merging edge (867075 867076) since length 0 << 1.99997e-11
Merging edge (867076 867077) since length 0 << 1.99997e-11
Merging edge (867077 867078) since length 0 << 1.99997e-11
Merging edge (867078 867079) since length 0 << 1.99997e-11
Merging edge (867079 867080) since length 0 << 1.99997e-11
Merging edge (867080 867081) since length 0 << 1.99997e-11
Merging edge (867081 867082) since length 0 << 1.99997e-11
Merging edge (867082 867083) since length 0 << 1.99997e-11
Merging edge (867083 867084) since length 0 << 1.99997e-11
Merging edge (867084 867085) since length 0 << 1.99997e-11
Merging edge (867085 867086) since length 0 << 1.99997e-11
Merging edge (867086 867087) since length 0 << 1.99997e-11
Merging edge (867087 867088) since length 0 << 1.99997e-11
Merging edge (867088 867089) since length 0 << 1.99997e-11
Merging edge (867089 867090) since length 0 << 1.99997e-11
Merging edge (867090 867091) since length 0 << 1.99997e-11
Merging edge (867091 867092) since length 0 << 1.99997e-11
Merging edge (867092 867093) since length 0 << 1.99997e-11
Merging edge (867093 867094) since length 0 << 1.99997e-11
Merging edge (867094 867095) since length 0 << 1.99997e-11
Merging edge (867095 867096) since length 0 << 1.99997e-11
Merging edge (867096 867097) since length 0 << 1.99997e-11
Merging edge (867097 867098) since length 0 << 1.99997e-11
Merging edge (867098 867099) since length 0 << 1.99997e-11
Merging edge (867099 867100) since length 0 << 1.99997e-11
Merging edge (867100 867101) since length 0 << 1.99997e-11
Merging edge (867101 867102) since length 0 << 1.99997e-11
Merging edge (867102 867103) since length 0 << 1.99997e-11
Merging edge (867103 867104) since length 0 << 1.99997e-11
Merging edge (867104 867105) since length 0 << 1.99997e-11
Merging edge (867105 867106) since length 0 << 1.99997e-11
Merging edge (867106 867107) since length 0 << 1.99997e-11
Merging edge (867107 867108) since length 0 << 1.99997e-11
Merging edge (867108 867109) since length 0 << 1.99997e-11
Merging edge (867109 867110) since length 0 << 1.99997e-11
Merging edge (867110 867111) since length 0 << 1.99997e-11
Merging edge (867111 867112) since length 0 << 1.99997e-11
Merging edge (867112 867113) since length 0 << 1.99997e-11
Merging edge (867113 867114) since length 0 << 1.99997e-11
Merging edge (867114 867115) since length 0 << 1.99997e-11
Merging edge (867115 867116) since length 0 << 1.99997e-11
Merging edge (867116 867117) since length 0 << 1.99997e-11
Merging edge (867117 867118) since length 0 << 1.99997e-11
Merging edge (867118 867119) since length 0 << 1.99997e-11
Merging edge (867119 867120) since length 0 << 1.99997e-11
Merging edge (867120 867121) since length 0 << 1.99997e-11
Merging edge (867121 867122) since length 0 << 1.99997e-11
Merging edge (867122 867123) since length 0 << 1.99997e-11
Merging edge (867123 867124) since length 0 << 1.99997e-11
Merging edge (867124 867125) since length 0 << 1.99997e-11
Merging edge (867125 867126) since length 0 << 1.99997e-11
Merging edge (867126 867127) since length 0 << 1.99997e-11
Merging edge (867127 867128) since length 0 << 1.99997e-11
Merging edge (867128 867129) since length 0 << 1.99997e-11
Merging edge (867129 867130) since length 0 << 1.99997e-11
Merging edge (867130 867131) since length 0 << 1.99997e-11
Merging edge (867131 867132) since length 0 << 1.99997e-11
Merging edge (867132 867133) since length 0 << 1.99997e-11
Merging edge (867133 867134) since length 0 << 1.99997e-11
Merging edge (867134 867135) since length 0 << 1.99997e-11
Merging edge (867135 867136) since length 0 << 1.99997e-11
Merging edge (867136 867137) since length 0 << 1.99997e-11
Merging edge (867137 867138) since length 0 << 1.99997e-11
Merging edge (867138 867139) since length 0 << 1.99997e-11
Merging edge (867139 867140) since length 0 << 1.99997e-11
Merging edge (867140 867141) since length 0 << 1.99997e-11
Merging edge (867141 867142) since length 0 << 1.99997e-11
Merging edge (867142 867143) since length 0 << 1.99997e-11
Merging edge (867143 867144) since length 0 << 1.99997e-11
Merging edge (867144 867145) since length 0 << 1.99997e-11
Merging edge (867145 867146) since length 0 << 1.99997e-11
Merging edge (867146 867147) since length 0 << 1.99997e-11
Merging edge (867147 867148) since length 0 << 1.99997e-11
Merging edge (867148 867149) since length 0 << 1.99997e-11
Merging edge (867149 867150) since length 0 << 1.99997e-11
Merging edge (867150 867151) since length 0 << 1.99997e-11
Merging edge (867151 867152) since length 0 << 1.99997e-11
Merging edge (867152 867153) since length 0 << 1.99997e-11
Merging edge (867153 867154) since length 0 << 1.99997e-11
Merging edge (867154 867155) since length 0 << 1.99997e-11
Merging edge (867155 867156) since length 0 << 1.99997e-11
Merging edge (867156 867157) since length 0 << 1.99997e-11
Merging edge (867157 867158) since length 0 << 1.99997e-11
Merging edge (867158 867159) since length 0 << 1.99997e-11
Merging edge (867159 867160) since length 0 << 1.99997e-11
Merging edge (867160 867161) since length 0 << 1.99997e-11
Merging edge (867161 867162) since length 0 << 1.99997e-11
Merging edge (867162 867163) since length 0 << 1.99997e-11
Merging edge (867163 867164) since length 0 << 1.99997e-11
Merging edge (867164 867165) since length 0 << 1.99997e-11
Merging edge (867165 867166) since length 0 << 1.99997e-11
Merging edge (867166 867167) since length 0 << 1.99997e-11
Merging edge (867167 867168) since length 0 << 1.99997e-11
Merging edge (867168 867169) since length 0 << 1.99997e-11
Merging edge (867169 867170) since length 0 << 1.99997e-11
Merging edge (867170 867171) since length 0 << 1.99997e-11
Merging edge (867171 867172) since length 0 << 1.99997e-11
Merging edge (867172 867173) since length 0 << 1.99997e-11
Merging edge (867173 867174) since length 0 << 1.99997e-11
Merging edge (867174 867175) since length 0 << 1.99997e-11
Merging edge (867175 867176) since length 0 << 1.99997e-11
Merging edge (867176 867177) since length 0 << 1.99997e-11
Merging edge (867177 867178) since length 0 << 1.99997e-11
Merging edge (867178 867179) since length 0 << 1.99997e-11
Merging edge (867179 867180) since length 0 << 1.99997e-11
Merging edge (867180 867181) since length 0 << 1.99997e-11
Merging edge (867181 867182) since length 0 << 1.99997e-11
Merging edge (867182 867183) since length 0 << 1.99997e-11
Merging edge (867183 867184) since length 0 << 1.99997e-11
Merging edge (867184 867185) since length 0 << 1.99997e-11
Merging edge (867185 867186) since length 0 << 1.99997e-11
Merging edge (867186 867187) since length 0 << 1.99997e-11
Merging edge (867187 867188) since length 0 << 1.99997e-11
Merging edge (867188 867189) since length 0 << 1.99997e-11
Merging edge (867189 867190) since length 0 << 1.99997e-11
Merging edge (867190 867191) since length 0 << 1.99997e-11
Merging edge (867191 867192) since length 0 << 1.99997e-11
Merging edge (867192 867193) since length 0 << 1.99997e-11
Merging edge (867193 867194) since length 0 << 1.99997e-11
Merging edge (867194 867195) since length 0 << 1.99997e-11
Merging edge (867195 867196) since length 0 << 1.99997e-11
Merging edge (867196 867197) since length 0 << 1.99997e-11
Merging edge (867197 867198) since length 0 << 1.99997e-11
Merging edge (867198 867199) since length 0 << 1.99997e-11
Merging edge (867199 867200) since length 0 << 1.99997e-11
Merging edge (867200 867201) since length 0 << 1.99997e-11
Merging edge (867201 867202) since length 0 << 1.99997e-11
Merging edge (867202 867203) since length 0 << 1.99997e-11
Merging edge (867203 867204) since length 0 << 1.99997e-11
Merging edge (867204 867205) since length 0 << 1.99997e-11
Merging edge (867205 867206) since length 0 << 1.99997e-11
Merging edge (867206 867207) since length 0 << 1.99997e-11
Merging edge (867207 867208) since length 0 << 1.99997e-11
Merging edge (867208 867209) since length 0 << 1.99997e-11
Merging edge (867209 867210) since length 0 << 1.99997e-11
Merging edge (867210 867211) since length 0 << 1.99997e-11
Merging edge (867211 867212) since length 0 << 1.99997e-11
Merging edge (867212 867213) since length 0 << 1.99997e-11
Merging edge (867213 867214) since length 0 << 1.99997e-11
Merging edge (867214 867215) since length 0 << 1.99997e-11
Merging edge (867215 867216) since length 0 << 1.99997e-11
Merging edge (867216 867217) since length 0 << 1.99997e-11
Merging edge (867217 867218) since length 0 << 1.99997e-11
Merging edge (867218 867219) since length 0 << 1.99997e-11
Merging edge (867219 867220) since length 0 << 1.99997e-11
Merging edge (867220 867221) since length 0 << 1.99997e-11
Merging edge (867221 867222) since length 0 << 1.99997e-11
Merging edge (867222 867223) since length 0 << 1.99997e-11
Merging edge (867223 867224) since length 0 << 1.99997e-11
Merging edge (867224 867225) since length 0 << 1.99997e-11
Merging edge (867225 867226) since length 0 << 1.99997e-11
Merging edge (867226 867227) since length 0 << 1.99997e-11
Merging edge (867227 867228) since length 0 << 1.99997e-11
Merging edge (867228 867229) since length 0 << 1.99997e-11
Merging edge (867229 867230) since length 0 << 1.99997e-11
Merging edge (867230 867231) since length 0 << 1.99997e-11
Merging edge (867231 867232) since length 0 << 1.99997e-11
Merging edge (867232 867233) since length 0 << 1.99997e-11
Merging edge (867233 867234) since length 0 << 1.99997e-11
Merging edge (867234 867235) since length 0 << 1.99997e-11
Merging edge (867235 867236) since length 0 << 1.99997e-11
Merging edge (867236 867237) since length 0 << 1.99997e-11
Merging edge (867237 867238) since length 0 << 1.99997e-11
Merging edge (867238 867239) since length 0 << 1.99997e-11
Merging edge (867239 867240) since length 0 << 1.99997e-11
Merging edge (867240 867241) since length 0 << 1.99997e-11
Merging edge (867241 867242) since length 0 << 1.99997e-11
Merging edge (867242 867243) since length 0 << 1.99997e-11
Merging edge (867243 867244) since length 0 << 1.99997e-11
Merging edge (867244 867245) since length 0 << 1.99997e-11
Merging edge (867245 867246) since length 0 << 1.99997e-11
Merging edge (867246 867247) since length 0 << 1.99997e-11
Merging edge (867247 867248) since length 0 << 1.99997e-11
Merging edge (867248 867249) since length 0 << 1.99997e-11
Merging edge (867249 867250) since length 0 << 1.99997e-11
Merging edge (867250 867251) since length 0 << 1.99997e-11
Merging edge (867251 867252) since length 0 << 1.99997e-11
Merging edge (867252 867253) since length 0 << 1.99997e-11
Merging edge (867253 867254) since length 0 << 1.99997e-11
Merging edge (867254 867255) since length 0 << 1.99997e-11
Merging edge (867255 867256) since length 0 << 1.99997e-11
Merging edge (867256 867257) since length 0 << 1.99997e-11
Merging edge (867257 867258) since length 0 << 1.99997e-11
Merging edge (867258 867259) since length 0 << 1.99997e-11
Merging edge (867259 867260) since length 0 << 1.99997e-11
Merging edge (867260 867261) since length 0 << 1.99997e-11
Merging edge (867261 867262) since length 0 << 1.99997e-11
Merging edge (867262 867263) since length 0 << 1.99997e-11
Merging edge (867263 867264) since length 0 << 1.99997e-11
Merging edge (867264 867265) since length 0 << 1.99997e-11
Merging edge (867265 867266) since length 0 << 1.99997e-11
Merging edge (867266 867267) since length 0 << 1.99997e-11
Merging edge (867267 867268) since length 0 << 1.99997e-11
Merging edge (867268 867269) since length 0 << 1.99997e-11
Merging edge (867269 867270) since length 0 << 1.99997e-11
Merging edge (867270 867271) since length 0 << 1.99997e-11
Merging edge (867271 867272) since length 0 << 1.99997e-11
Merging edge (867272 867273) since length 0 << 1.99997e-11
Merging edge (867273 867274) since length 0 << 1.99997e-11
Merging edge (867274 867275) since length 0 << 1.99997e-11
Merging edge (867275 867276) since length 0 << 1.99997e-11
Merging edge (867276 867277) since length 0 << 1.99997e-11
Merging edge (867277 867278) since length 0 << 1.99997e-11
Merging edge (867278 867279) since length 0 << 1.99997e-11
Merging edge (867279 867280) since length 0 << 1.99997e-11
Merging edge (867280 867281) since length 0 << 1.99997e-11
Merging edge (867281 867282) since length 0 << 1.99997e-11
Merging edge (867282 867283) since length 0 << 1.99997e-11
Merging edge (867283 867284) since length 0 << 1.99997e-11
Merging edge (867284 867285) since length 0 << 1.99997e-11
Merging edge (867285 867286) since length 0 << 1.99997e-11
Merging edge (867286 867287) since length 0 << 1.99997e-11
Merging edge (867287 867288) since length 0 << 1.99997e-11
Merging edge (867288 867289) since length 0 << 1.99997e-11
Merging edge (867289 867290) since length 0 << 1.99997e-11
Merging edge (867290 867291) since length 0 << 1.99997e-11
Merging edge (867291 867292) since length 0 << 1.99997e-11
Merging edge (867292 867293) since length 0 << 1.99997e-11
Merging edge (867293 867294) since length 0 << 1.99997e-11
Merging edge (867294 867295) since length 0 << 1.99997e-11
Merging edge (867295 867296) since length 0 << 1.99997e-11
Merging edge (867296 867297) since length 0 << 1.99997e-11
Merging edge (867297 867298) since length 0 << 1.99997e-11
Merging edge (867298 867299) since length 0 << 1.99997e-11
Merging edge (867299 867300) since length 0 << 1.99997e-11
Merging edge (867300 867301) since length 0 << 1.99997e-11
Merging edge (867301 867302) since length 0 << 1.99997e-11
Merging edge (867302 867303) since length 0 << 1.99997e-11
Merging edge (867303 867304) since length 0 << 1.99997e-11
Merging edge (867304 867305) since length 0 << 1.99997e-11
Merging edge (867305 867306) since length 0 << 1.99997e-11
Merging edge (867306 867307) since length 0 << 1.99997e-11
Merging edge (867307 867308) since length 0 << 1.99997e-11
Merging edge (867308 867309) since length 0 << 1.99997e-11
Merging edge (867309 867310) since length 0 << 1.99997e-11
Merging edge (867310 867311) since length 0 << 1.99997e-11
Merging edge (867311 867312) since length 0 << 1.99997e-11
Merging edge (867313 867314) since length 0 << 1.99997e-11
Merging edge (867314 867315) since length 0 << 1.99997e-11
Merging edge (867315 867316) since length 0 << 1.99997e-11
Merging edge (867316 867317) since length 0 << 1.99997e-11
Merging edge (867317 867318) since length 0 << 1.99997e-11
Merging edge (867318 867319) since length 0 << 1.99997e-11
Merging edge (867319 867320) since length 0 << 1.99997e-11
Merging edge (867320 867321) since length 0 << 1.99997e-11
Merging edge (867321 867322) since length 0 << 1.99997e-11
Merging edge (867322 867323) since length 0 << 1.99997e-11
Merging edge (867323 867324) since length 0 << 1.99997e-11
Merging edge (867324 867325) since length 0 << 1.99997e-11
Merging edge (867325 867326) since length 0 << 1.99997e-11
Merging edge (867326 867327) since length 0 << 1.99997e-11
Merging edge (867327 867328) since length 0 << 1.99997e-11
Merging edge (867328 867329) since length 0 << 1.99997e-11
Merging edge (867329 867330) since length 0 << 1.99997e-11
Merging edge (867330 867331) since length 0 << 1.99997e-11
Merging edge (867331 867332) since length 0 << 1.99997e-11
Merging edge (867332 867333) since length 0 << 1.99997e-11
Merging edge (867333 867334) since length 0 << 1.99997e-11
Merging edge (867334 867335) since length 0 << 1.99997e-11
Merging edge (867335 867336) since length 0 << 1.99997e-11
Merging edge (867336 867337) since length 0 << 1.99997e-11
Merging edge (867337 867338) since length 0 << 1.99997e-11
Merging edge (867338 867339) since length 0 << 1.99997e-11
Merging edge (867339 867340) since length 0 << 1.99997e-11
Merging edge (867340 867341) since length 0 << 1.99997e-11
Merging edge (867341 867342) since length 0 << 1.99997e-11
Merging edge (867342 867343) since length 0 << 1.99997e-11
Merging edge (867343 867344) since length 0 << 1.99997e-11
Merging edge (867344 867345) since length 0 << 1.99997e-11
Merging edge (867345 867346) since length 0 << 1.99997e-11
Merging edge (867346 867347) since length 0 << 1.99997e-11
Merging edge (867347 867348) since length 0 << 1.99997e-11
Merging edge (867348 867349) since length 0 << 1.99997e-11
Merging edge (867349 867350) since length 0 << 1.99997e-11
Merging edge (867350 867351) since length 0 << 1.99997e-11
Merging edge (867351 867352) since length 0 << 1.99997e-11
Merging edge (867352 867353) since length 0 << 1.99997e-11
Merging edge (867353 867354) since length 0 << 1.99997e-11
Merging edge (867354 867355) since length 0 << 1.99997e-11
Merging edge (867355 867356) since length 0 << 1.99997e-11
Merging edge (867356 867357) since length 0 << 1.99997e-11
Merging edge (867357 867358) since length 0 << 1.99997e-11
Merging edge (867358 867359) since length 0 << 1.99997e-11
Merging edge (867359 867360) since length 0 << 1.99997e-11
Merging edge (867360 867361) since length 0 << 1.99997e-11
Merging edge (867361 867362) since length 0 << 1.99997e-11
Merging edge (867362 867363) since length 0 << 1.99997e-11
Merging edge (867363 867364) since length 0 << 1.99997e-11
Merging edge (867364 867365) since length 0 << 1.99997e-11
Merging edge (867365 867366) since length 0 << 1.99997e-11
Merging edge (867366 867367) since length 0 << 1.99997e-11
Merging edge (867367 867368) since length 0 << 1.99997e-11
Merging edge (867368 867369) since length 0 << 1.99997e-11
Merging edge (867369 867370) since length 0 << 1.99997e-11
Merging edge (867370 867371) since length 0 << 1.99997e-11
Merging edge (867371 867372) since length 0 << 1.99997e-11
Merging edge (867372 867373) since length 0 << 1.99997e-11
Merging edge (867373 867374) since length 0 << 1.99997e-11
Merging edge (867374 867375) since length 0 << 1.99997e-11
Merging edge (867375 867376) since length 0 << 1.99997e-11
Merging edge (867376 867377) since length 0 << 1.99997e-11
Merging edge (867377 867378) since length 0 << 1.99997e-11
Merging edge (867378 867379) since length 0 << 1.99997e-11
Merging edge (867379 867380) since length 0 << 1.99997e-11
Merging edge (867380 867381) since length 0 << 1.99997e-11
Merging edge (867381 867382) since length 0 << 1.99997e-11
Merging edge (867382 867383) since length 0 << 1.99997e-11
Merging edge (867383 867384) since length 0 << 1.99997e-11
Merging edge (867384 867385) since length 0 << 1.99997e-11
Merging edge (867385 867386) since length 0 << 1.99997e-11
Merging edge (867386 867387) since length 0 << 1.99997e-11
Merging edge (867387 867388) since length 0 << 1.99997e-11
Merging edge (867388 867389) since length 0 << 1.99997e-11
Merging edge (867389 867390) since length 0 << 1.99997e-11
Merging edge (867390 867391) since length 0 << 1.99997e-11
Merging edge (867391 867392) since length 0 << 1.99997e-11
Merging edge (867392 867393) since length 0 << 1.99997e-11
Merging edge (867393 867394) since length 0 << 1.99997e-11
Merging edge (867394 867395) since length 0 << 1.99997e-11
Merging edge (867395 867396) since length 0 << 1.99997e-11
Merging edge (867396 867397) since length 0 << 1.99997e-11
Merging edge (867397 867398) since length 0 << 1.99997e-11
Merging edge (867398 867399) since length 0 << 1.99997e-11
Merging edge (867399 867400) since length 0 << 1.99997e-11
Merging edge (867400 867401) since length 0 << 1.99997e-11
Merging edge (867401 867402) since length 0 << 1.99997e-11
Merging edge (867402 867403) since length 0 << 1.99997e-11
Merging edge (867403 867404) since length 0 << 1.99997e-11
Merging edge (867404 867405) since length 0 << 1.99997e-11
Merging edge (867405 867406) since length 0 << 1.99997e-11
Merging edge (867406 867407) since length 0 << 1.99997e-11
Merging edge (867407 867408) since length 0 << 1.99997e-11
Merging edge (867408 867409) since length 0 << 1.99997e-11
Merging edge (867409 867410) since length 0 << 1.99997e-11
Merging edge (867410 867411) since length 0 << 1.99997e-11
Merging edge (867411 867412) since length 0 << 1.99997e-11
Merging edge (867412 867413) since length 0 << 1.99997e-11
Merging edge (867413 867414) since length 0 << 1.99997e-11
Merging edge (867414 867415) since length 0 << 1.99997e-11
Merging edge (867415 867416) since length 0 << 1.99997e-11
Merging edge (867416 867417) since length 0 << 1.99997e-11
Merging edge (867417 867418) since length 0 << 1.99997e-11
Merging edge (867418 867419) since length 0 << 1.99997e-11
Merging edge (867419 867420) since length 0 << 1.99997e-11
Merging edge (867420 867421) since length 0 << 1.99997e-11
Merging edge (867421 867422) since length 0 << 1.99997e-11
Merging edge (867422 867423) since length 0 << 1.99997e-11
Merging edge (867423 867424) since length 0 << 1.99997e-11
Merging edge (867424 867425) since length 0 << 1.99997e-11
Merging edge (867425 867426) since length 0 << 1.99997e-11
Merging edge (867426 867427) since length 0 << 1.99997e-11
Merging edge (867427 867428) since length 0 << 1.99997e-11
Merging edge (867428 867429) since length 0 << 1.99997e-11
Merging edge (867429 867430) since length 0 << 1.99997e-11
Merging edge (867430 867431) since length 0 << 1.99997e-11
Merging edge (867431 867432) since length 0 << 1.99997e-11
Merging edge (867432 867433) since length 0 << 1.99997e-11
Merging edge (867433 867434) since length 0 << 1.99997e-11
Merging edge (867434 867435) since length 0 << 1.99997e-11
Merging edge (867435 867436) since length 0 << 1.99997e-11
Merging edge (867436 867437) since length 0 << 1.99997e-11
Merging edge (867437 867438) since length 0 << 1.99997e-11
Merging edge (867438 867439) since length 0 << 1.99997e-11
Merging edge (867439 867440) since length 0 << 1.99997e-11
Merging edge (867440 867441) since length 0 << 1.99997e-11
Merging edge (867441 867442) since length 0 << 1.99997e-11
Merging edge (867442 867443) since length 0 << 1.99997e-11
Merging edge (867443 867444) since length 0 << 1.99997e-11
Merging edge (867444 867445) since length 0 << 1.99997e-11
Merging edge (867445 867446) since length 0 << 1.99997e-11
Merging edge (867446 867447) since length 0 << 1.99997e-11
Merging edge (867447 867448) since length 0 << 1.99997e-11
Merging edge (867448 867449) since length 0 << 1.99997e-11
Merging edge (867449 867450) since length 0 << 1.99997e-11
Merging edge (867450 867451) since length 0 << 1.99997e-11
Merging edge (867451 867452) since length 0 << 1.99997e-11
Merging edge (867452 867453) since length 0 << 1.99997e-11
Merging edge (867453 867454) since length 0 << 1.99997e-11
Merging edge (867454 867455) since length 0 << 1.99997e-11
Merging edge (867455 867456) since length 0 << 1.99997e-11
Merging edge (867456 867457) since length 0 << 1.99997e-11
Merging edge (867457 867458) since length 0 << 1.99997e-11
Merging edge (867458 867459) since length 0 << 1.99997e-11
Merging edge (867459 867460) since length 0 << 1.99997e-11
Merging edge (867460 867461) since length 0 << 1.99997e-11
Merging edge (867461 867462) since length 0 << 1.99997e-11
Merging edge (867462 867463) since length 0 << 1.99997e-11
Merging edge (867463 867464) since length 0 << 1.99997e-11
Merging edge (867464 867465) since length 0 << 1.99997e-11
Merging edge (867465 867466) since length 0 << 1.99997e-11
Merging edge (867466 867467) since length 0 << 1.99997e-11
Merging edge (867467 867468) since length 0 << 1.99997e-11
Merging edge (867468 867469) since length 0 << 1.99997e-11
Merging edge (867469 867470) since length 0 << 1.99997e-11
Merging edge (867470 867471) since length 0 << 1.99997e-11
Merging edge (867471 867472) since length 0 << 1.99997e-11
Merging edge (867472 867473) since length 0 << 1.99997e-11
Merging edge (867473 867474) since length 0 << 1.99997e-11
Merging edge (867474 867475) since length 0 << 1.99997e-11
Merging edge (867475 867476) since length 0 << 1.99997e-11
Merging edge (867476 867477) since length 0 << 1.99997e-11
Merging edge (867477 867478) since length 0 << 1.99997e-11
Merging edge (867478 867479) since length 0 << 1.99997e-11
Merging edge (867479 867480) since length 0 << 1.99997e-11
Merging edge (867480 867481) since length 0 << 1.99997e-11
Merging edge (867481 867482) since length 0 << 1.99997e-11
Merging edge (867482 867483) since length 0 << 1.99997e-11
Merging edge (867483 867484) since length 0 << 1.99997e-11
Merging edge (867484 867485) since length 0 << 1.99997e-11
Merging edge (867485 867486) since length 0 << 1.99997e-11
Merging edge (867486 867487) since length 0 << 1.99997e-11
Merging edge (867487 867488) since length 0 << 1.99997e-11
Merging edge (867488 867489) since length 0 << 1.99997e-11
Merging edge (867489 867490) since length 0 << 1.99997e-11
Merging edge (867490 867491) since length 0 << 1.99997e-11
Merging edge (867491 867492) since length 0 << 1.99997e-11
Merging edge (867492 867493) since length 0 << 1.99997e-11
Merging edge (867493 867494) since length 0 << 1.99997e-11
Merging edge (867494 867495) since length 0 << 1.99997e-11
Merging edge (867495 867496) since length 0 << 1.99997e-11
Merging edge (867496 867497) since length 0 << 1.99997e-11
Merging edge (867497 867498) since length 0 << 1.99997e-11
Merging edge (867498 867499) since length 0 << 1.99997e-11
Merging edge (867499 867500) since length 0 << 1.99997e-11
Merging edge (867500 867501) since length 0 << 1.99997e-11
Merging edge (867501 867502) since length 0 << 1.99997e-11
Merging edge (867502 867503) since length 0 << 1.99997e-11
Merging edge (867503 867504) since length 0 << 1.99997e-11
Merging edge (867504 867505) since length 0 << 1.99997e-11
Merging edge (867505 867506) since length 0 << 1.99997e-11
Merging edge (867506 867507) since length 0 << 1.99997e-11
Merging edge (867507 867508) since length 0 << 1.99997e-11
Merging edge (867508 867509) since length 0 << 1.99997e-11
Merging edge (867509 867510) since length 0 << 1.99997e-11
Merging edge (867510 867511) since length 0 << 1.99997e-11
Merging edge (867511 867512) since length 0 << 1.99997e-11
Merging edge (867512 867513) since length 0 << 1.99997e-11
Merging edge (867513 867514) since length 0 << 1.99997e-11
Merging edge (867514 867515) since length 0 << 1.99997e-11
Merging edge (867515 867516) since length 0 << 1.99997e-11
Merging edge (867516 867517) since length 0 << 1.99997e-11
Merging edge (867517 867518) since length 0 << 1.99997e-11
Merging edge (867518 867519) since length 0 << 1.99997e-11
Merging edge (867519 867520) since length 0 << 1.99997e-11
Merging edge (867520 867521) since length 0 << 1.99997e-11
Merging edge (867521 867522) since length 0 << 1.99997e-11
Merging edge (867522 867523) since length 0 << 1.99997e-11
Merging edge (867523 867524) since length 0 << 1.99997e-11
Merging edge (867524 867525) since length 0 << 1.99997e-11
Merging edge (867525 867526) since length 0 << 1.99997e-11
Merging edge (867526 867527) since length 0 << 1.99997e-11
Merging edge (867527 867528) since length 0 << 1.99997e-11
Merging edge (867528 867529) since length 0 << 1.99997e-11
Merging edge (867529 867530) since length 0 << 1.99997e-11
Merging edge (867530 867531) since length 0 << 1.99997e-11
Merging edge (867531 867532) since length 0 << 1.99997e-11
Merging edge (867532 867533) since length 0 << 1.99997e-11
Merging edge (867533 867534) since length 0 << 1.99997e-11
Merging edge (867534 867535) since length 0 << 1.99997e-11
Merging edge (867535 867536) since length 0 << 1.99997e-11
Merging edge (867536 867537) since length 0 << 1.99997e-11
Merging edge (867537 867538) since length 0 << 1.99997e-11
Merging edge (867538 867539) since length 0 << 1.99997e-11
Merging edge (867539 867540) since length 0 << 1.99997e-11
Merging edge (867540 867541) since length 0 << 1.99997e-11
Merging edge (867541 867542) since length 0 << 1.99997e-11
Merging edge (867542 867543) since length 0 << 1.99997e-11
Merging edge (867543 867544) since length 0 << 1.99997e-11
Merging edge (867544 867545) since length 0 << 1.99997e-11
Merging edge (867545 867546) since length 0 << 1.99997e-11
Merging edge (867546 867547) since length 0 << 1.99997e-11
Merging edge (867547 867548) since length 0 << 1.99997e-11
Merging edge (867548 867549) since length 0 << 1.99997e-11
Merging edge (867549 867550) since length 0 << 1.99997e-11
Merging edge (867550 867551) since length 0 << 1.99997e-11
Merging edge (867551 867552) since length 0 << 1.99997e-11
Merging edge (867552 867553) since length 0 << 1.99997e-11
Merging edge (867553 867554) since length 0 << 1.99997e-11
Merging edge (867554 867555) since length 0 << 1.99997e-11
Merging edge (867555 867556) since length 0 << 1.99997e-11
Merging edge (867556 867557) since length 0 << 1.99997e-11
Merging edge (867557 867558) since length 0 << 1.99997e-11
Merging edge (867558 867559) since length 0 << 1.99997e-11
Merging edge (867559 867560) since length 0 << 1.99997e-11
Merging edge (867560 867561) since length 0 << 1.99997e-11
Merging edge (867561 867562) since length 0 << 1.99997e-11
Merging edge (867562 867563) since length 0 << 1.99997e-11
Merging edge (867563 867564) since length 0 << 1.99997e-11
Merging edge (867564 867565) since length 0 << 1.99997e-11
Merging edge (867565 867566) since length 0 << 1.99997e-11
Merging edge (867566 867567) since length 0 << 1.99997e-11
Merging edge (867567 867568) since length 0 << 1.99997e-11
Merging edge (867568 867569) since length 0 << 1.99997e-11
Merging edge (867569 867570) since length 0 << 1.99997e-11
Merging edge (867570 867571) since length 0 << 1.99997e-11
Merging edge (867571 867572) since length 0 << 1.99997e-11
Merging edge (867572 867573) since length 0 << 1.99997e-11
Merging edge (867573 867574) since length 0 << 1.99997e-11
Merging edge (867574 867575) since length 0 << 1.99997e-11
Merging edge (867575 867576) since length 0 << 1.99997e-11
Merging edge (867576 867577) since length 0 << 1.99997e-11
Merging edge (867577 867578) since length 0 << 1.99997e-11
Merging edge (867578 867579) since length 0 << 1.99997e-11
Merging edge (867579 867580) since length 0 << 1.99997e-11
Merging edge (867580 867581) since length 0 << 1.99997e-11
Merging edge (867581 867582) since length 0 << 1.99997e-11
Merging edge (867582 867583) since length 0 << 1.99997e-11
Merging edge (867583 867584) since length 0 << 1.99997e-11
Merging edge (867584 867585) since length 0 << 1.99997e-11
Merging edge (867585 867586) since length 0 << 1.99997e-11
Merging edge (867586 867587) since length 0 << 1.99997e-11
Merging edge (867587 867588) since length 0 << 1.99997e-11
Merging edge (867588 867589) since length 0 << 1.99997e-11
Merging edge (867589 867590) since length 0 << 1.99997e-11
Merging edge (867590 867591) since length 0 << 1.99997e-11
Merging edge (867591 867592) since length 0 << 1.99997e-11
Merging edge (867592 867593) since length 0 << 1.99997e-11
Merging edge (867593 867594) since length 0 << 1.99997e-11
Merging edge (867594 867595) since length 0 << 1.99997e-11
Merging edge (867595 867596) since length 0 << 1.99997e-11
Merging edge (867596 867597) since length 0 << 1.99997e-11
Merging edge (867597 867598) since length 0 << 1.99997e-11
Merging edge (867598 867599) since length 0 << 1.99997e-11
Merging edge (867599 867600) since length 0 << 1.99997e-11
Merging edge (867601 867602) since length 0 << 1.99997e-11
Merging edge (867602 867603) since length 0 << 1.99997e-11
Merging edge (867603 867604) since length 0 << 1.99997e-11
Merging edge (867604 867605) since length 0 << 1.99997e-11
Merging edge (867605 867606) since length 0 << 1.99997e-11
Merging edge (867606 867607) since length 0 << 1.99997e-11
Merging edge (867607 867608) since length 0 << 1.99997e-11
Merging edge (867608 867609) since length 0 << 1.99997e-11
Merging edge (867609 867610) since length 0 << 1.99997e-11
Merging edge (867610 867611) since length 0 << 1.99997e-11
Merging edge (867611 867612) since length 0 << 1.99997e-11
Merging edge (867612 867613) since length 0 << 1.99997e-11
Merging edge (867613 867614) since length 0 << 1.99997e-11
Merging edge (867614 867615) since length 0 << 1.99997e-11
Merging edge (867615 867616) since length 0 << 1.99997e-11
Merging edge (867616 867617) since length 0 << 1.99997e-11
Merging edge (867617 867618) since length 0 << 1.99997e-11
Merging edge (867618 867619) since length 0 << 1.99997e-11
Merging edge (867619 867620) since length 0 << 1.99997e-11
Merging edge (867620 867621) since length 0 << 1.99997e-11
Merging edge (867621 867622) since length 0 << 1.99997e-11
Merging edge (867622 867623) since length 0 << 1.99997e-11
Merging edge (867623 867624) since length 0 << 1.99997e-11
Merging edge (867624 867625) since length 0 << 1.99997e-11
Merging edge (867625 867626) since length 0 << 1.99997e-11
Merging edge (867626 867627) since length 0 << 1.99997e-11
Merging edge (867627 867628) since length 0 << 1.99997e-11
Merging edge (867628 867629) since length 0 << 1.99997e-11
Merging edge (867629 867630) since length 0 << 1.99997e-11
Merging edge (867630 867631) since length 0 << 1.99997e-11
Merging edge (867631 867632) since length 0 << 1.99997e-11
Merging edge (867632 867633) since length 0 << 1.99997e-11
Merging edge (867633 867634) since length 0 << 1.99997e-11
Merging edge (867634 867635) since length 0 << 1.99997e-11
Merging edge (867635 867636) since length 0 << 1.99997e-11
Merging edge (867636 867637) since length 0 << 1.99997e-11
Merging edge (867637 867638) since length 0 << 1.99997e-11
Merging edge (867638 867639) since length 0 << 1.99997e-11
Merging edge (867639 867640) since length 0 << 1.99997e-11
Merging edge (867640 867641) since length 0 << 1.99997e-11
Merging edge (867641 867642) since length 0 << 1.99997e-11
Merging edge (867642 867643) since length 0 << 1.99997e-11
Merging edge (867643 867644) since length 0 << 1.99997e-11
Merging edge (867644 867645) since length 0 << 1.99997e-11
Merging edge (867645 867646) since length 0 << 1.99997e-11
Merging edge (867646 867647) since length 0 << 1.99997e-11
Merging edge (867647 867648) since length 0 << 1.99997e-11
Merging edge (867648 867649) since length 0 << 1.99997e-11
Merging edge (867649 867650) since length 0 << 1.99997e-11
Merging edge (867650 867651) since length 0 << 1.99997e-11
Merging edge (867651 867652) since length 0 << 1.99997e-11
Merging edge (867652 867653) since length 0 << 1.99997e-11
Merging edge (867653 867654) since length 0 << 1.99997e-11
Merging edge (867654 867655) since length 0 << 1.99997e-11
Merging edge (867655 867656) since length 0 << 1.99997e-11
Merging edge (867656 867657) since length 0 << 1.99997e-11
Merging edge (867657 867658) since length 0 << 1.99997e-11
Merging edge (867658 867659) since length 0 << 1.99997e-11
Merging edge (867659 867660) since length 0 << 1.99997e-11
Merging edge (867660 867661) since length 0 << 1.99997e-11
Merging edge (867661 867662) since length 0 << 1.99997e-11
Merging edge (867662 867663) since length 0 << 1.99997e-11
Merging edge (867663 867664) since length 0 << 1.99997e-11
Merging edge (867664 867665) since length 0 << 1.99997e-11
Merging edge (867665 867666) since length 0 << 1.99997e-11
Merging edge (867666 867667) since length 0 << 1.99997e-11
Merging edge (867667 867668) since length 0 << 1.99997e-11
Merging edge (867668 867669) since length 0 << 1.99997e-11
Merging edge (867669 867670) since length 0 << 1.99997e-11
Merging edge (867670 867671) since length 0 << 1.99997e-11
Merging edge (867671 867672) since length 0 << 1.99997e-11
Merging edge (867672 867673) since length 0 << 1.99997e-11
Merging edge (867673 867674) since length 0 << 1.99997e-11
Merging edge (867674 867675) since length 0 << 1.99997e-11
Merging edge (867675 867676) since length 0 << 1.99997e-11
Merging edge (867676 867677) since length 0 << 1.99997e-11
Merging edge (867677 867678) since length 0 << 1.99997e-11
Merging edge (867678 867679) since length 0 << 1.99997e-11
Merging edge (867679 867680) since length 0 << 1.99997e-11
Merging edge (867680 867681) since length 0 << 1.99997e-11
Merging edge (867681 867682) since length 0 << 1.99997e-11
Merging edge (867682 867683) since length 0 << 1.99997e-11
Merging edge (867683 867684) since length 0 << 1.99997e-11
Merging edge (867684 867685) since length 0 << 1.99997e-11
Merging edge (867685 867686) since length 0 << 1.99997e-11
Merging edge (867686 867687) since length 0 << 1.99997e-11
Merging edge (867687 867688) since length 0 << 1.99997e-11
Merging edge (867688 867689) since length 0 << 1.99997e-11
Merging edge (867689 867690) since length 0 << 1.99997e-11
Merging edge (867690 867691) since length 0 << 1.99997e-11
Merging edge (867691 867692) since length 0 << 1.99997e-11
Merging edge (867692 867693) since length 0 << 1.99997e-11
Merging edge (867693 867694) since length 0 << 1.99997e-11
Merging edge (867694 867695) since length 0 << 1.99997e-11
Merging edge (867695 867696) since length 0 << 1.99997e-11
Merging edge (867696 867697) since length 0 << 1.99997e-11
Merging edge (867697 867698) since length 0 << 1.99997e-11
Merging edge (867698 867699) since length 0 << 1.99997e-11
Merging edge (867699 867700) since length 0 << 1.99997e-11
Merging edge (867700 867701) since length 0 << 1.99997e-11
Merging edge (867701 867702) since length 0 << 1.99997e-11
Merging edge (867702 867703) since length 0 << 1.99997e-11
Merging edge (867703 867704) since length 0 << 1.99997e-11
Merging edge (867704 867705) since length 0 << 1.99997e-11
Merging edge (867705 867706) since length 0 << 1.99997e-11
Merging edge (867706 867707) since length 0 << 1.99997e-11
Merging edge (867707 867708) since length 0 << 1.99997e-11
Merging edge (867708 867709) since length 0 << 1.99997e-11
Merging edge (867709 867710) since length 0 << 1.99997e-11
Merging edge (867710 867711) since length 0 << 1.99997e-11
Merging edge (867711 867712) since length 0 << 1.99997e-11
Merging edge (867712 867713) since length 0 << 1.99997e-11
Merging edge (867713 867714) since length 0 << 1.99997e-11
Merging edge (867714 867715) since length 0 << 1.99997e-11
Merging edge (867715 867716) since length 0 << 1.99997e-11
Merging edge (867716 867717) since length 0 << 1.99997e-11
Merging edge (867717 867718) since length 0 << 1.99997e-11
Merging edge (867718 867719) since length 0 << 1.99997e-11
Merging edge (867719 867720) since length 0 << 1.99997e-11
Merging edge (867720 867721) since length 0 << 1.99997e-11
Merging edge (867721 867722) since length 0 << 1.99997e-11
Merging edge (867722 867723) since length 0 << 1.99997e-11
Merging edge (867723 867724) since length 0 << 1.99997e-11
Merging edge (867724 867725) since length 0 << 1.99997e-11
Merging edge (867725 867726) since length 0 << 1.99997e-11
Merging edge (867726 867727) since length 0 << 1.99997e-11
Merging edge (867727 867728) since length 0 << 1.99997e-11
Merging edge (867728 867729) since length 0 << 1.99997e-11
Merging edge (867729 867730) since length 0 << 1.99997e-11
Merging edge (867730 867731) since length 0 << 1.99997e-11
Merging edge (867731 867732) since length 0 << 1.99997e-11
Merging edge (867732 867733) since length 0 << 1.99997e-11
Merging edge (867733 867734) since length 0 << 1.99997e-11
Merging edge (867734 867735) since length 0 << 1.99997e-11
Merging edge (867735 867736) since length 0 << 1.99997e-11
Merging edge (867736 867737) since length 0 << 1.99997e-11
Merging edge (867737 867738) since length 0 << 1.99997e-11
Merging edge (867738 867739) since length 0 << 1.99997e-11
Merging edge (867739 867740) since length 0 << 1.99997e-11
Merging edge (867740 867741) since length 0 << 1.99997e-11
Merging edge (867741 867742) since length 0 << 1.99997e-11
Merging edge (867742 867743) since length 0 << 1.99997e-11
Merging edge (867743 867744) since length 0 << 1.99997e-11
Merging edge (867744 867745) since length 0 << 1.99997e-11
Merging edge (867745 867746) since length 0 << 1.99997e-11
Merging edge (867746 867747) since length 0 << 1.99997e-11
Merging edge (867747 867748) since length 0 << 1.99997e-11
Merging edge (867748 867749) since length 0 << 1.99997e-11
Merging edge (867749 867750) since length 0 << 1.99997e-11
Merging edge (867750 867751) since length 0 << 1.99997e-11
Merging edge (867751 867752) since length 0 << 1.99997e-11
Merging edge (867752 867753) since length 0 << 1.99997e-11
Merging edge (867753 867754) since length 0 << 1.99997e-11
Merging edge (867754 867755) since length 0 << 1.99997e-11
Merging edge (867755 867756) since length 0 << 1.99997e-11
Merging edge (867756 867757) since length 0 << 1.99997e-11
Merging edge (867757 867758) since length 0 << 1.99997e-11
Merging edge (867758 867759) since length 0 << 1.99997e-11
Merging edge (867759 867760) since length 0 << 1.99997e-11
Merging edge (867760 867761) since length 0 << 1.99997e-11
Merging edge (867761 867762) since length 0 << 1.99997e-11
Merging edge (867762 867763) since length 0 << 1.99997e-11
Merging edge (867763 867764) since length 0 << 1.99997e-11
Merging edge (867764 867765) since length 0 << 1.99997e-11
Merging edge (867765 867766) since length 0 << 1.99997e-11
Merging edge (867766 867767) since length 0 << 1.99997e-11
Merging edge (867767 867768) since length 0 << 1.99997e-11
Merging edge (867768 867769) since length 0 << 1.99997e-11
Merging edge (867769 867770) since length 0 << 1.99997e-11
Merging edge (867770 867771) since length 0 << 1.99997e-11
Merging edge (867771 867772) since length 0 << 1.99997e-11
Merging edge (867772 867773) since length 0 << 1.99997e-11
Merging edge (867773 867774) since length 0 << 1.99997e-11
Merging edge (867774 867775) since length 0 << 1.99997e-11
Merging edge (867775 867776) since length 0 << 1.99997e-11
Merging edge (867776 867777) since length 0 << 1.99997e-11
Merging edge (867777 867778) since length 0 << 1.99997e-11
Merging edge (867778 867779) since length 0 << 1.99997e-11
Merging edge (867779 867780) since length 0 << 1.99997e-11
Merging edge (867780 867781) since length 0 << 1.99997e-11
Merging edge (867781 867782) since length 0 << 1.99997e-11
Merging edge (867782 867783) since length 0 << 1.99997e-11
Merging edge (867783 867784) since length 0 << 1.99997e-11
Merging edge (867784 867785) since length 0 << 1.99997e-11
Merging edge (867785 867786) since length 0 << 1.99997e-11
Merging edge (867786 867787) since length 0 << 1.99997e-11
Merging edge (867787 867788) since length 0 << 1.99997e-11
Merging edge (867788 867789) since length 0 << 1.99997e-11
Merging edge (867789 867790) since length 0 << 1.99997e-11
Merging edge (867790 867791) since length 0 << 1.99997e-11
Merging edge (867791 867792) since length 0 << 1.99997e-11
Merging edge (867792 867793) since length 0 << 1.99997e-11
Merging edge (867793 867794) since length 0 << 1.99997e-11
Merging edge (867794 867795) since length 0 << 1.99997e-11
Merging edge (867795 867796) since length 0 << 1.99997e-11
Merging edge (867796 867797) since length 0 << 1.99997e-11
Merging edge (867797 867798) since length 0 << 1.99997e-11
Merging edge (867798 867799) since length 0 << 1.99997e-11
Merging edge (867799 867800) since length 0 << 1.99997e-11
Merging edge (867800 867801) since length 0 << 1.99997e-11
Merging edge (867801 867802) since length 0 << 1.99997e-11
Merging edge (867802 867803) since length 0 << 1.99997e-11
Merging edge (867803 867804) since length 0 << 1.99997e-11
Merging edge (867804 867805) since length 0 << 1.99997e-11
Merging edge (867805 867806) since length 0 << 1.99997e-11
Merging edge (867806 867807) since length 0 << 1.99997e-11
Merging edge (867807 867808) since length 0 << 1.99997e-11
Merging edge (867808 867809) since length 0 << 1.99997e-11
Merging edge (867809 867810) since length 0 << 1.99997e-11
Merging edge (867810 867811) since length 0 << 1.99997e-11
Merging edge (867811 867812) since length 0 << 1.99997e-11
Merging edge (867812 867813) since length 0 << 1.99997e-11
Merging edge (867813 867814) since length 0 << 1.99997e-11
Merging edge (867814 867815) since length 0 << 1.99997e-11
Merging edge (867815 867816) since length 0 << 1.99997e-11
Merging edge (867816 867817) since length 0 << 1.99997e-11
Merging edge (867817 867818) since length 0 << 1.99997e-11
Merging edge (867818 867819) since length 0 << 1.99997e-11
Merging edge (867819 867820) since length 0 << 1.99997e-11
Merging edge (867820 867821) since length 0 << 1.99997e-11
Merging edge (867821 867822) since length 0 << 1.99997e-11
Merging edge (867822 867823) since length 0 << 1.99997e-11
Merging edge (867823 867824) since length 0 << 1.99997e-11
Merging edge (867824 867825) since length 0 << 1.99997e-11
Merging edge (867825 867826) since length 0 << 1.99997e-11
Merging edge (867826 867827) since length 0 << 1.99997e-11
Merging edge (867827 867828) since length 0 << 1.99997e-11
Merging edge (867828 867829) since length 0 << 1.99997e-11
Merging edge (867829 867830) since length 0 << 1.99997e-11
Merging edge (867830 867831) since length 0 << 1.99997e-11
Merging edge (867831 867832) since length 0 << 1.99997e-11
Merging edge (867832 867833) since length 0 << 1.99997e-11
Merging edge (867833 867834) since length 0 << 1.99997e-11
Merging edge (867834 867835) since length 0 << 1.99997e-11
Merging edge (867835 867836) since length 0 << 1.99997e-11
Merging edge (867836 867837) since length 0 << 1.99997e-11
Merging edge (867837 867838) since length 0 << 1.99997e-11
Merging edge (867838 867839) since length 0 << 1.99997e-11
Merging edge (867839 867840) since length 0 << 1.99997e-11
Merging edge (867840 867841) since length 0 << 1.99997e-11
Merging edge (867841 867842) since length 0 << 1.99997e-11
Merging edge (867842 867843) since length 0 << 1.99997e-11
Merging edge (867843 867844) since length 0 << 1.99997e-11
Merging edge (867844 867845) since length 0 << 1.99997e-11
Merging edge (867845 867846) since length 0 << 1.99997e-11
Merging edge (867846 867847) since length 0 << 1.99997e-11
Merging edge (867847 867848) since length 0 << 1.99997e-11
Merging edge (867848 867849) since length 0 << 1.99997e-11
Merging edge (867849 867850) since length 0 << 1.99997e-11
Merging edge (867850 867851) since length 0 << 1.99997e-11
Merging edge (867851 867852) since length 0 << 1.99997e-11
Merging edge (867852 867853) since length 0 << 1.99997e-11
Merging edge (867853 867854) since length 0 << 1.99997e-11
Merging edge (867854 867855) since length 0 << 1.99997e-11
Merging edge (867855 867856) since length 0 << 1.99997e-11
Merging edge (867856 867857) since length 0 << 1.99997e-11
Merging edge (867857 867858) since length 0 << 1.99997e-11
Merging edge (867858 867859) since length 0 << 1.99997e-11
Merging edge (867859 867860) since length 0 << 1.99997e-11
Merging edge (867860 867861) since length 0 << 1.99997e-11
Merging edge (867861 867862) since length 0 << 1.99997e-11
Merging edge (867862 867863) since length 0 << 1.99997e-11
Merging edge (867863 867864) since length 0 << 1.99997e-11
Merging edge (867864 867865) since length 0 << 1.99997e-11
Merging edge (867865 867866) since length 0 << 1.99997e-11
Merging edge (867866 867867) since length 0 << 1.99997e-11
Merging edge (867867 867868) since length 0 << 1.99997e-11
Merging edge (867868 867869) since length 0 << 1.99997e-11
Merging edge (867869 867870) since length 0 << 1.99997e-11
Merging edge (867870 867871) since length 0 << 1.99997e-11
Merging edge (867871 867872) since length 0 << 1.99997e-11
Merging edge (867872 867873) since length 0 << 1.99997e-11
Merging edge (867873 867874) since length 0 << 1.99997e-11
Merging edge (867874 867875) since length 0 << 1.99997e-11
Merging edge (867875 867876) since length 0 << 1.99997e-11
Merging edge (867876 867877) since length 0 << 1.99997e-11
Merging edge (867877 867878) since length 0 << 1.99997e-11
Merging edge (867878 867879) since length 0 << 1.99997e-11
Merging edge (867879 867880) since length 0 << 1.99997e-11
Merging edge (867880 867881) since length 0 << 1.99997e-11
Merging edge (867881 867882) since length 0 << 1.99997e-11
Merging edge (867882 867883) since length 0 << 1.99997e-11
Merging edge (867883 867884) since length 0 << 1.99997e-11
Merging edge (867884 867885) since length 0 << 1.99997e-11
Merging edge (867885 867886) since length 0 << 1.99997e-11
Merging edge (867886 867887) since length 0 << 1.99997e-11
Merging edge (867887 867888) since length 0 << 1.99997e-11
Merging edge (867889 867890) since length 0 << 1.99997e-11
Merging edge (867890 867891) since length 0 << 1.99997e-11
Merging edge (867891 867892) since length 0 << 1.99997e-11
Merging edge (867892 867893) since length 0 << 1.99997e-11
Merging edge (867893 867894) since length 0 << 1.99997e-11
Merging edge (867894 867895) since length 0 << 1.99997e-11
Merging edge (867895 867896) since length 0 << 1.99997e-11
Merging edge (867896 867897) since length 0 << 1.99997e-11
Merging edge (867897 867898) since length 0 << 1.99997e-11
Merging edge (867898 867899) since length 0 << 1.99997e-11
Merging edge (867899 867900) since length 0 << 1.99997e-11
Merging edge (867900 867901) since length 0 << 1.99997e-11
Merging edge (867901 867902) since length 0 << 1.99997e-11
Merging edge (867902 867903) since length 0 << 1.99997e-11
Merging edge (867903 867904) since length 0 << 1.99997e-11
Merging edge (867904 867905) since length 0 << 1.99997e-11
Merging edge (867905 867906) since length 0 << 1.99997e-11
Merging edge (867906 867907) since length 0 << 1.99997e-11
Merging edge (867907 867908) since length 0 << 1.99997e-11
Merging edge (867908 867909) since length 0 << 1.99997e-11
Merging edge (867909 867910) since length 0 << 1.99997e-11
Merging edge (867910 867911) since length 0 << 1.99997e-11
Merging edge (867911 867912) since length 0 << 1.99997e-11
Merging edge (867912 867913) since length 0 << 1.99997e-11
Merging edge (867913 867914) since length 0 << 1.99997e-11
Merging edge (867914 867915) since length 0 << 1.99997e-11
Merging edge (867915 867916) since length 0 << 1.99997e-11
Merging edge (867916 867917) since length 0 << 1.99997e-11
Merging edge (867917 867918) since length 0 << 1.99997e-11
Merging edge (867918 867919) since length 0 << 1.99997e-11
Merging edge (867919 867920) since length 0 << 1.99997e-11
Merging edge (867920 867921) since length 0 << 1.99997e-11
Merging edge (867921 867922) since length 0 << 1.99997e-11
Merging edge (867922 867923) since length 0 << 1.99997e-11
Merging edge (867923 867924) since length 0 << 1.99997e-11
Merging edge (867924 867925) since length 0 << 1.99997e-11
Merging edge (867925 867926) since length 0 << 1.99997e-11
Merging edge (867926 867927) since length 0 << 1.99997e-11
Merging edge (867927 867928) since length 0 << 1.99997e-11
Merging edge (867928 867929) since length 0 << 1.99997e-11
Merging edge (867929 867930) since length 0 << 1.99997e-11
Merging edge (867930 867931) since length 0 << 1.99997e-11
Merging edge (867931 867932) since length 0 << 1.99997e-11
Merging edge (867932 867933) since length 0 << 1.99997e-11
Merging edge (867933 867934) since length 0 << 1.99997e-11
Merging edge (867934 867935) since length 0 << 1.99997e-11
Merging edge (867935 867936) since length 0 << 1.99997e-11
Merging edge (867936 867937) since length 0 << 1.99997e-11
Merging edge (867937 867938) since length 0 << 1.99997e-11
Merging edge (867938 867939) since length 0 << 1.99997e-11
Merging edge (867939 867940) since length 0 << 1.99997e-11
Merging edge (867940 867941) since length 0 << 1.99997e-11
Merging edge (867941 867942) since length 0 << 1.99997e-11
Merging edge (867942 867943) since length 0 << 1.99997e-11
Merging edge (867943 867944) since length 0 << 1.99997e-11
Merging edge (867944 867945) since length 0 << 1.99997e-11
Merging edge (867945 867946) since length 0 << 1.99997e-11
Merging edge (867946 867947) since length 0 << 1.99997e-11
Merging edge (867947 867948) since length 0 << 1.99997e-11
Merging edge (867948 867949) since length 0 << 1.99997e-11
Merging edge (867949 867950) since length 0 << 1.99997e-11
Merging edge (867950 867951) since length 0 << 1.99997e-11
Merging edge (867951 867952) since length 0 << 1.99997e-11
Merging edge (867952 867953) since length 0 << 1.99997e-11
Merging edge (867953 867954) since length 0 << 1.99997e-11
Merging edge (867954 867955) since length 0 << 1.99997e-11
Merging edge (867955 867956) since length 0 << 1.99997e-11
Merging edge (867956 867957) since length 0 << 1.99997e-11
Merging edge (867957 867958) since length 0 << 1.99997e-11
Merging edge (867958 867959) since length 0 << 1.99997e-11
Merging edge (867959 867960) since length 0 << 1.99997e-11
Merging edge (867960 867961) since length 0 << 1.99997e-11
Merging edge (867961 867962) since length 0 << 1.99997e-11
Merging edge (867962 867963) since length 0 << 1.99997e-11
Merging edge (867963 867964) since length 0 << 1.99997e-11
Merging edge (867964 867965) since length 0 << 1.99997e-11
Merging edge (867965 867966) since length 0 << 1.99997e-11
Merging edge (867966 867967) since length 0 << 1.99997e-11
Merging edge (867967 867968) since length 0 << 1.99997e-11
Merging edge (867968 867969) since length 0 << 1.99997e-11
Merging edge (867969 867970) since length 0 << 1.99997e-11
Merging edge (867970 867971) since length 0 << 1.99997e-11
Merging edge (867971 867972) since length 0 << 1.99997e-11
Merging edge (867972 867973) since length 0 << 1.99997e-11
Merging edge (867973 867974) since length 0 << 1.99997e-11
Merging edge (867974 867975) since length 0 << 1.99997e-11
Merging edge (867975 867976) since length 0 << 1.99997e-11
Merging edge (867976 867977) since length 0 << 1.99997e-11
Merging edge (867977 867978) since length 0 << 1.99997e-11
Merging edge (867978 867979) since length 0 << 1.99997e-11
Merging edge (867979 867980) since length 0 << 1.99997e-11
Merging edge (867980 867981) since length 0 << 1.99997e-11
Merging edge (867981 867982) since length 0 << 1.99997e-11
Merging edge (867982 867983) since length 0 << 1.99997e-11
Merging edge (867983 867984) since length 0 << 1.99997e-11
Merging edge (867984 867985) since length 0 << 1.99997e-11
Merging edge (867985 867986) since length 0 << 1.99997e-11
Merging edge (867986 867987) since length 0 << 1.99997e-11
Merging edge (867987 867988) since length 0 << 1.99997e-11
Merging edge (867988 867989) since length 0 << 1.99997e-11
Merging edge (867989 867990) since length 0 << 1.99997e-11
Merging edge (867990 867991) since length 0 << 1.99997e-11
Merging edge (867991 867992) since length 0 << 1.99997e-11
Merging edge (867992 867993) since length 0 << 1.99997e-11
Merging edge (867993 867994) since length 0 << 1.99997e-11
Merging edge (867994 867995) since length 0 << 1.99997e-11
Merging edge (867995 867996) since length 0 << 1.99997e-11
Merging edge (867996 867997) since length 0 << 1.99997e-11
Merging edge (867997 867998) since length 0 << 1.99997e-11
Merging edge (867998 867999) since length 0 << 1.99997e-11
Merging edge (867999 868000) since length 0 << 1.99997e-11
Merging edge (868000 868001) since length 0 << 1.99997e-11
Merging edge (868001 868002) since length 0 << 1.99997e-11
Merging edge (868002 868003) since length 0 << 1.99997e-11
Merging edge (868003 868004) since length 0 << 1.99997e-11
Merging edge (868004 868005) since length 0 << 1.99997e-11
Merging edge (868005 868006) since length 0 << 1.99997e-11
Merging edge (868006 868007) since length 0 << 1.99997e-11
Merging edge (868007 868008) since length 0 << 1.99997e-11
Merging edge (868008 868009) since length 0 << 1.99997e-11
Merging edge (868009 868010) since length 0 << 1.99997e-11
Merging edge (868010 868011) since length 0 << 1.99997e-11
Merging edge (868011 868012) since length 0 << 1.99997e-11
Merging edge (868012 868013) since length 0 << 1.99997e-11
Merging edge (868013 868014) since length 0 << 1.99997e-11
Merging edge (868014 868015) since length 0 << 1.99997e-11
Merging edge (868015 868016) since length 0 << 1.99997e-11
Merging edge (868016 868017) since length 0 << 1.99997e-11
Merging edge (868017 868018) since length 0 << 1.99997e-11
Merging edge (868018 868019) since length 0 << 1.99997e-11
Merging edge (868019 868020) since length 0 << 1.99997e-11
Merging edge (868020 868021) since length 0 << 1.99997e-11
Merging edge (868021 868022) since length 0 << 1.99997e-11
Merging edge (868022 868023) since length 0 << 1.99997e-11
Merging edge (868023 868024) since length 0 << 1.99997e-11
Merging edge (868024 868025) since length 0 << 1.99997e-11
Merging edge (868025 868026) since length 0 << 1.99997e-11
Merging edge (868026 868027) since length 0 << 1.99997e-11
Merging edge (868027 868028) since length 0 << 1.99997e-11
Merging edge (868028 868029) since length 0 << 1.99997e-11
Merging edge (868029 868030) since length 0 << 1.99997e-11
Merging edge (868030 868031) since length 0 << 1.99997e-11
Merging edge (868031 868032) since length 0 << 1.99997e-11
Merging edge (868032 868033) since length 0 << 1.99997e-11
Merging edge (868033 868034) since length 0 << 1.99997e-11
Merging edge (868034 868035) since length 0 << 1.99997e-11
Merging edge (868035 868036) since length 0 << 1.99997e-11
Merging edge (868036 868037) since length 0 << 1.99997e-11
Merging edge (868037 868038) since length 0 << 1.99997e-11
Merging edge (868038 868039) since length 0 << 1.99997e-11
Merging edge (868039 868040) since length 0 << 1.99997e-11
Merging edge (868040 868041) since length 0 << 1.99997e-11
Merging edge (868041 868042) since length 0 << 1.99997e-11
Merging edge (868042 868043) since length 0 << 1.99997e-11
Merging edge (868043 868044) since length 0 << 1.99997e-11
Merging edge (868044 868045) since length 0 << 1.99997e-11
Merging edge (868045 868046) since length 0 << 1.99997e-11
Merging edge (868046 868047) since length 0 << 1.99997e-11
Merging edge (868047 868048) since length 0 << 1.99997e-11
Merging edge (868048 868049) since length 0 << 1.99997e-11
Merging edge (868049 868050) since length 0 << 1.99997e-11
Merging edge (868050 868051) since length 0 << 1.99997e-11
Merging edge (868051 868052) since length 0 << 1.99997e-11
Merging edge (868052 868053) since length 0 << 1.99997e-11
Merging edge (868053 868054) since length 0 << 1.99997e-11
Merging edge (868054 868055) since length 0 << 1.99997e-11
Merging edge (868055 868056) since length 0 << 1.99997e-11
Merging edge (868056 868057) since length 0 << 1.99997e-11
Merging edge (868057 868058) since length 0 << 1.99997e-11
Merging edge (868058 868059) since length 0 << 1.99997e-11
Merging edge (868059 868060) since length 0 << 1.99997e-11
Merging edge (868060 868061) since length 0 << 1.99997e-11
Merging edge (868061 868062) since length 0 << 1.99997e-11
Merging edge (868062 868063) since length 0 << 1.99997e-11
Merging edge (868063 868064) since length 0 << 1.99997e-11
Merging edge (868064 868065) since length 0 << 1.99997e-11
Merging edge (868065 868066) since length 0 << 1.99997e-11
Merging edge (868066 868067) since length 0 << 1.99997e-11
Merging edge (868067 868068) since length 0 << 1.99997e-11
Merging edge (868068 868069) since length 0 << 1.99997e-11
Merging edge (868069 868070) since length 0 << 1.99997e-11
Merging edge (868070 868071) since length 0 << 1.99997e-11
Merging edge (868071 868072) since length 0 << 1.99997e-11
Merging edge (868072 868073) since length 0 << 1.99997e-11
Merging edge (868073 868074) since length 0 << 1.99997e-11
Merging edge (868074 868075) since length 0 << 1.99997e-11
Merging edge (868075 868076) since length 0 << 1.99997e-11
Merging edge (868076 868077) since length 0 << 1.99997e-11
Merging edge (868077 868078) since length 0 << 1.99997e-11
Merging edge (868078 868079) since length 0 << 1.99997e-11
Merging edge (868079 868080) since length 0 << 1.99997e-11
Merging edge (868080 868081) since length 0 << 1.99997e-11
Merging edge (868081 868082) since length 0 << 1.99997e-11
Merging edge (868082 868083) since length 0 << 1.99997e-11
Merging edge (868083 868084) since length 0 << 1.99997e-11
Merging edge (868084 868085) since length 0 << 1.99997e-11
Merging edge (868085 868086) since length 0 << 1.99997e-11
Merging edge (868086 868087) since length 0 << 1.99997e-11
Merging edge (868087 868088) since length 0 << 1.99997e-11
Merging edge (868088 868089) since length 0 << 1.99997e-11
Merging edge (868089 868090) since length 0 << 1.99997e-11
Merging edge (868090 868091) since length 0 << 1.99997e-11
Merging edge (868091 868092) since length 0 << 1.99997e-11
Merging edge (868092 868093) since length 0 << 1.99997e-11
Merging edge (868093 868094) since length 0 << 1.99997e-11
Merging edge (868094 868095) since length 0 << 1.99997e-11
Merging edge (868095 868096) since length 0 << 1.99997e-11
Merging edge (868096 868097) since length 0 << 1.99997e-11
Merging edge (868097 868098) since length 0 << 1.99997e-11
Merging edge (868098 868099) since length 0 << 1.99997e-11
Merging edge (868099 868100) since length 0 << 1.99997e-11
Merging edge (868100 868101) since length 0 << 1.99997e-11
Merging edge (868101 868102) since length 0 << 1.99997e-11
Merging edge (868102 868103) since length 0 << 1.99997e-11
Merging edge (868103 868104) since length 0 << 1.99997e-11
Merging edge (868104 868105) since length 0 << 1.99997e-11
Merging edge (868105 868106) since length 0 << 1.99997e-11
Merging edge (868106 868107) since length 0 << 1.99997e-11
Merging edge (868107 868108) since length 0 << 1.99997e-11
Merging edge (868108 868109) since length 0 << 1.99997e-11
Merging edge (868109 868110) since length 0 << 1.99997e-11
Merging edge (868110 868111) since length 0 << 1.99997e-11
Merging edge (868111 868112) since length 0 << 1.99997e-11
Merging edge (868112 868113) since length 0 << 1.99997e-11
Merging edge (868113 868114) since length 0 << 1.99997e-11
Merging edge (868114 868115) since length 0 << 1.99997e-11
Merging edge (868115 868116) since length 0 << 1.99997e-11
Merging edge (868116 868117) since length 0 << 1.99997e-11
Merging edge (868117 868118) since length 0 << 1.99997e-11
Merging edge (868118 868119) since length 0 << 1.99997e-11
Merging edge (868119 868120) since length 0 << 1.99997e-11
Merging edge (868120 868121) since length 0 << 1.99997e-11
Merging edge (868121 868122) since length 0 << 1.99997e-11
Merging edge (868122 868123) since length 0 << 1.99997e-11
Merging edge (868123 868124) since length 0 << 1.99997e-11
Merging edge (868124 868125) since length 0 << 1.99997e-11
Merging edge (868125 868126) since length 0 << 1.99997e-11
Merging edge (868126 868127) since length 0 << 1.99997e-11
Merging edge (868127 868128) since length 0 << 1.99997e-11
Merging edge (868128 868129) since length 0 << 1.99997e-11
Merging edge (868129 868130) since length 0 << 1.99997e-11
Merging edge (868130 868131) since length 0 << 1.99997e-11
Merging edge (868131 868132) since length 0 << 1.99997e-11
Merging edge (868132 868133) since length 0 << 1.99997e-11
Merging edge (868133 868134) since length 0 << 1.99997e-11
Merging edge (868134 868135) since length 0 << 1.99997e-11
Merging edge (868135 868136) since length 0 << 1.99997e-11
Merging edge (868136 868137) since length 0 << 1.99997e-11
Merging edge (868137 868138) since length 0 << 1.99997e-11
Merging edge (868138 868139) since length 0 << 1.99997e-11
Merging edge (868139 868140) since length 0 << 1.99997e-11
Merging edge (868140 868141) since length 0 << 1.99997e-11
Merging edge (868141 868142) since length 0 << 1.99997e-11
Merging edge (868142 868143) since length 0 << 1.99997e-11
Merging edge (868143 868144) since length 0 << 1.99997e-11
Merging edge (868144 868145) since length 0 << 1.99997e-11
Merging edge (868145 868146) since length 0 << 1.99997e-11
Merging edge (868146 868147) since length 0 << 1.99997e-11
Merging edge (868147 868148) since length 0 << 1.99997e-11
Merging edge (868148 868149) since length 0 << 1.99997e-11
Merging edge (868149 868150) since length 0 << 1.99997e-11
Merging edge (868150 868151) since length 0 << 1.99997e-11
Merging edge (868151 868152) since length 0 << 1.99997e-11
Merging edge (868152 868153) since length 0 << 1.99997e-11
Merging edge (868153 868154) since length 0 << 1.99997e-11
Merging edge (868154 868155) since length 0 << 1.99997e-11
Merging edge (868155 868156) since length 0 << 1.99997e-11
Merging edge (868156 868157) since length 0 << 1.99997e-11
Merging edge (868157 868158) since length 0 << 1.99997e-11
Merging edge (868158 868159) since length 0 << 1.99997e-11
Merging edge (868159 868160) since length 0 << 1.99997e-11
Merging edge (868160 868161) since length 0 << 1.99997e-11
Merging edge (868161 868162) since length 0 << 1.99997e-11
Merging edge (868162 868163) since length 0 << 1.99997e-11
Merging edge (868163 868164) since length 0 << 1.99997e-11
Merging edge (868164 868165) since length 0 << 1.99997e-11
Merging edge (868165 868166) since length 0 << 1.99997e-11
Merging edge (868166 868167) since length 0 << 1.99997e-11
Merging edge (868167 868168) since length 0 << 1.99997e-11
Merging edge (868168 868169) since length 0 << 1.99997e-11
Merging edge (868169 868170) since length 0 << 1.99997e-11
Merging edge (868170 868171) since length 0 << 1.99997e-11
Merging edge (868171 868172) since length 0 << 1.99997e-11
Merging edge (868172 868173) since length 0 << 1.99997e-11
Merging edge (868173 868174) since length 0 << 1.99997e-11
Merging edge (868174 868175) since length 0 << 1.99997e-11
Merging edge (868175 868176) since length 0 << 1.99997e-11
Merging edge (868177 868178) since length 0 << 1.99997e-11
Merging edge (868178 868179) since length 0 << 1.99997e-11
Merging edge (868179 868180) since length 0 << 1.99997e-11
Merging edge (868180 868181) since length 0 << 1.99997e-11
Merging edge (868181 868182) since length 0 << 1.99997e-11
Merging edge (868182 868183) since length 0 << 1.99997e-11
Merging edge (868183 868184) since length 0 << 1.99997e-11
Merging edge (868184 868185) since length 0 << 1.99997e-11
Merging edge (868185 868186) since length 0 << 1.99997e-11
Merging edge (868186 868187) since length 0 << 1.99997e-11
Merging edge (868187 868188) since length 0 << 1.99997e-11
Merging edge (868188 868189) since length 0 << 1.99997e-11
Merging edge (868189 868190) since length 0 << 1.99997e-11
Merging edge (868190 868191) since length 0 << 1.99997e-11
Merging edge (868191 868192) since length 0 << 1.99997e-11
Merging edge (868192 868193) since length 0 << 1.99997e-11
Merging edge (868193 868194) since length 0 << 1.99997e-11
Merging edge (868194 868195) since length 0 << 1.99997e-11
Merging edge (868195 868196) since length 0 << 1.99997e-11
Merging edge (868196 868197) since length 0 << 1.99997e-11
Merging edge (868197 868198) since length 0 << 1.99997e-11
Merging edge (868198 868199) since length 0 << 1.99997e-11
Merging edge (868199 868200) since length 0 << 1.99997e-11
Merging edge (868200 868201) since length 0 << 1.99997e-11
Merging edge (868201 868202) since length 0 << 1.99997e-11
Merging edge (868202 868203) since length 0 << 1.99997e-11
Merging edge (868203 868204) since length 0 << 1.99997e-11
Merging edge (868204 868205) since length 0 << 1.99997e-11
Merging edge (868205 868206) since length 0 << 1.99997e-11
Merging edge (868206 868207) since length 0 << 1.99997e-11
Merging edge (868207 868208) since length 0 << 1.99997e-11
Merging edge (868208 868209) since length 0 << 1.99997e-11
Merging edge (868209 868210) since length 0 << 1.99997e-11
Merging edge (868210 868211) since length 0 << 1.99997e-11
Merging edge (868211 868212) since length 0 << 1.99997e-11
Merging edge (868212 868213) since length 0 << 1.99997e-11
Merging edge (868213 868214) since length 0 << 1.99997e-11
Merging edge (868214 868215) since length 0 << 1.99997e-11
Merging edge (868215 868216) since length 0 << 1.99997e-11
Merging edge (868216 868217) since length 0 << 1.99997e-11
Merging edge (868217 868218) since length 0 << 1.99997e-11
Merging edge (868218 868219) since length 0 << 1.99997e-11
Merging edge (868219 868220) since length 0 << 1.99997e-11
Merging edge (868220 868221) since length 0 << 1.99997e-11
Merging edge (868221 868222) since length 0 << 1.99997e-11
Merging edge (868222 868223) since length 0 << 1.99997e-11
Merging edge (868223 868224) since length 0 << 1.99997e-11
Merging edge (868224 868225) since length 0 << 1.99997e-11
Merging edge (868225 868226) since length 0 << 1.99997e-11
Merging edge (868226 868227) since length 0 << 1.99997e-11
Merging edge (868227 868228) since length 0 << 1.99997e-11
Merging edge (868228 868229) since length 0 << 1.99997e-11
Merging edge (868229 868230) since length 0 << 1.99997e-11
Merging edge (868230 868231) since length 0 << 1.99997e-11
Merging edge (868231 868232) since length 0 << 1.99997e-11
Merging edge (868232 868233) since length 0 << 1.99997e-11
Merging edge (868233 868234) since length 0 << 1.99997e-11
Merging edge (868234 868235) since length 0 << 1.99997e-11
Merging edge (868235 868236) since length 0 << 1.99997e-11
Merging edge (868236 868237) since length 0 << 1.99997e-11
Merging edge (868237 868238) since length 0 << 1.99997e-11
Merging edge (868238 868239) since length 0 << 1.99997e-11
Merging edge (868239 868240) since length 0 << 1.99997e-11
Merging edge (868240 868241) since length 0 << 1.99997e-11
Merging edge (868241 868242) since length 0 << 1.99997e-11
Merging edge (868242 868243) since length 0 << 1.99997e-11
Merging edge (868243 868244) since length 0 << 1.99997e-11
Merging edge (868244 868245) since length 0 << 1.99997e-11
Merging edge (868245 868246) since length 0 << 1.99997e-11
Merging edge (868246 868247) since length 0 << 1.99997e-11
Merging edge (868247 868248) since length 0 << 1.99997e-11
Merging edge (868248 868249) since length 0 << 1.99997e-11
Merging edge (868249 868250) since length 0 << 1.99997e-11
Merging edge (868250 868251) since length 0 << 1.99997e-11
Merging edge (868251 868252) since length 0 << 1.99997e-11
Merging edge (868252 868253) since length 0 << 1.99997e-11
Merging edge (868253 868254) since length 0 << 1.99997e-11
Merging edge (868254 868255) since length 0 << 1.99997e-11
Merging edge (868255 868256) since length 0 << 1.99997e-11
Merging edge (868256 868257) since length 0 << 1.99997e-11
Merging edge (868257 868258) since length 0 << 1.99997e-11
Merging edge (868258 868259) since length 0 << 1.99997e-11
Merging edge (868259 868260) since length 0 << 1.99997e-11
Merging edge (868260 868261) since length 0 << 1.99997e-11
Merging edge (868261 868262) since length 0 << 1.99997e-11
Merging edge (868262 868263) since length 0 << 1.99997e-11
Merging edge (868263 868264) since length 0 << 1.99997e-11
Merging edge (868264 868265) since length 0 << 1.99997e-11
Merging edge (868265 868266) since length 0 << 1.99997e-11
Merging edge (868266 868267) since length 0 << 1.99997e-11
Merging edge (868267 868268) since length 0 << 1.99997e-11
Merging edge (868268 868269) since length 0 << 1.99997e-11
Merging edge (868269 868270) since length 0 << 1.99997e-11
Merging edge (868270 868271) since length 0 << 1.99997e-11
Merging edge (868271 868272) since length 0 << 1.99997e-11
Merging edge (868272 868273) since length 0 << 1.99997e-11
Merging edge (868273 868274) since length 0 << 1.99997e-11
Merging edge (868274 868275) since length 0 << 1.99997e-11
Merging edge (868275 868276) since length 0 << 1.99997e-11
Merging edge (868276 868277) since length 0 << 1.99997e-11
Merging edge (868277 868278) since length 0 << 1.99997e-11
Merging edge (868278 868279) since length 0 << 1.99997e-11
Merging edge (868279 868280) since length 0 << 1.99997e-11
Merging edge (868280 868281) since length 0 << 1.99997e-11
Merging edge (868281 868282) since length 0 << 1.99997e-11
Merging edge (868282 868283) since length 0 << 1.99997e-11
Merging edge (868283 868284) since length 0 << 1.99997e-11
Merging edge (868284 868285) since length 0 << 1.99997e-11
Merging edge (868285 868286) since length 0 << 1.99997e-11
Merging edge (868286 868287) since length 0 << 1.99997e-11
Merging edge (868287 868288) since length 0 << 1.99997e-11
Merging edge (868288 868289) since length 0 << 1.99997e-11
Merging edge (868289 868290) since length 0 << 1.99997e-11
Merging edge (868290 868291) since length 0 << 1.99997e-11
Merging edge (868291 868292) since length 0 << 1.99997e-11
Merging edge (868292 868293) since length 0 << 1.99997e-11
Merging edge (868293 868294) since length 0 << 1.99997e-11
Merging edge (868294 868295) since length 0 << 1.99997e-11
Merging edge (868295 868296) since length 0 << 1.99997e-11
Merging edge (868296 868297) since length 0 << 1.99997e-11
Merging edge (868297 868298) since length 0 << 1.99997e-11
Merging edge (868298 868299) since length 0 << 1.99997e-11
Merging edge (868299 868300) since length 0 << 1.99997e-11
Merging edge (868300 868301) since length 0 << 1.99997e-11
Merging edge (868301 868302) since length 0 << 1.99997e-11
Merging edge (868302 868303) since length 0 << 1.99997e-11
Merging edge (868303 868304) since length 0 << 1.99997e-11
Merging edge (868304 868305) since length 0 << 1.99997e-11
Merging edge (868305 868306) since length 0 << 1.99997e-11
Merging edge (868306 868307) since length 0 << 1.99997e-11
Merging edge (868307 868308) since length 0 << 1.99997e-11
Merging edge (868308 868309) since length 0 << 1.99997e-11
Merging edge (868309 868310) since length 0 << 1.99997e-11
Merging edge (868310 868311) since length 0 << 1.99997e-11
Merging edge (868311 868312) since length 0 << 1.99997e-11
Merging edge (868312 868313) since length 0 << 1.99997e-11
Merging edge (868313 868314) since length 0 << 1.99997e-11
Merging edge (868314 868315) since length 0 << 1.99997e-11
Merging edge (868315 868316) since length 0 << 1.99997e-11
Merging edge (868316 868317) since length 0 << 1.99997e-11
Merging edge (868317 868318) since length 0 << 1.99997e-11
Merging edge (868318 868319) since length 0 << 1.99997e-11
Merging edge (868319 868320) since length 0 << 1.99997e-11
Merging edge (868320 868321) since length 0 << 1.99997e-11
Merging edge (868321 868322) since length 0 << 1.99997e-11
Merging edge (868322 868323) since length 0 << 1.99997e-11
Merging edge (868323 868324) since length 0 << 1.99997e-11
Merging edge (868324 868325) since length 0 << 1.99997e-11
[...]
Merging edge (873892 873893) since length 0 << 1.99997e-11
Merging edge (873893 873894) since length 0 << 1.99997e-11
Merging edge (873894 873895) since length 0 << 1.99997e-11
Merging edge (873895 873896) since length 0 << 1.99997e-11
Merging edge (873896 873897) since length 0 << 1.99997e-11
Merging edge (873897 873898) since length 0 << 1.99997e-11
Merging edge (873898 873899) since length 0 << 1.99997e-11
Merging edge (873899 873900) since length 0 << 1.99997e-11
Merging edge (873900 873901) since length 0 << 1.99997e-11
Merging edge (873901 873902) since length 0 << 1.99997e-11
Merging edge (873902 873903) since length 0 << 1.99997e-11
Merging edge (873903 873904) since length 0 << 1.99997e-11
Merging edge (873904 873905) since length 0 << 1.99997e-11
Merging edge (873905 873906) since length 0 << 1.99997e-11
Merging edge (873906 873907) since length 0 << 1.99997e-11
Merging edge (873907 873908) since length 0 << 1.99997e-11
Merging edge (873908 873909) since length 0 << 1.99997e-11
Merging edge (873909 873910) since length 0 << 1.99997e-11
Merging edge (873910 873911) since length 0 << 1.99997e-11
Merging edge (873911 873912) since length 0 << 1.99997e-11
Merging edge (873912 873913) since length 0 << 1.99997e-11
Merging edge (873913 873914) since length 0 << 1.99997e-11
Merging edge (873914 873915) since length 0 << 1.99997e-11
Merging edge (873915 873916) since length 0 << 1.99997e-11
Merging edge (873916 873917) since length 0 << 1.99997e-11
Merging edge (873917 873918) since length 0 << 1.99997e-11
Merging edge (873918 873919) since length 0 << 1.99997e-11
Merging edge (873919 873920) since length 0 << 1.99997e-11
Merging edge (873920 873921) since length 0 << 1.99997e-11
Merging edge (873921 873922) since length 0 << 1.99997e-11
Merging edge (873922 873923) since length 0 << 1.99997e-11
Merging edge (873923 873924) since length 0 << 1.99997e-11
Merging edge (873924 873925) since length 0 << 1.99997e-11
Merging edge (873925 873926) since length 0 << 1.99997e-11
Merging edge (873926 873927) since length 0 << 1.99997e-11
Merging edge (873927 873928) since length 0 << 1.99997e-11
Merging edge (873928 873929) since length 0 << 1.99997e-11
Merging edge (873929 873930) since length 0 << 1.99997e-11
Merging edge (873930 873931) since length 0 << 1.99997e-11
Merging edge (873931 873932) since length 0 << 1.99997e-11
Merging edge (873932 873933) since length 0 << 1.99997e-11
Merging edge (873933 873934) since length 0 << 1.99997e-11
Merging edge (873934 873935) since length 0 << 1.99997e-11
Merging edge (873935 873936) since length 0 << 1.99997e-11
Merging edge (873937 873938) since length 0 << 1.99997e-11
Merging edge (873938 873939) since length 0 << 1.99997e-11
Merging edge (873939 873940) since length 0 << 1.99997e-11
Merging edge (873940 873941) since length 0 << 1.99997e-11
Merging edge (873941 873942) since length 0 << 1.99997e-11
Merging edge (873942 873943) since length 0 << 1.99997e-11
Merging edge (873943 873944) since length 0 << 1.99997e-11
Merging edge (873944 873945) since length 0 << 1.99997e-11
Merging edge (873945 873946) since length 0 << 1.99997e-11
Merging edge (873946 873947) since length 0 << 1.99997e-11
Merging edge (873947 873948) since length 0 << 1.99997e-11
Merging edge (873948 873949) since length 0 << 1.99997e-11
Merging edge (873949 873950) since length 0 << 1.99997e-11
Merging edge (873950 873951) since length 0 << 1.99997e-11
Merging edge (873951 873952) since length 0 << 1.99997e-11
Merging edge (873952 873953) since length 0 << 1.99997e-11
Merging edge (873953 873954) since length 0 << 1.99997e-11
Merging edge (873954 873955) since length 0 << 1.99997e-11
Merging edge (873955 873956) since length 0 << 1.99997e-11
Merging edge (873956 873957) since length 0 << 1.99997e-11
Merging edge (873957 873958) since length 0 << 1.99997e-11
Merging edge (873958 873959) since length 0 << 1.99997e-11
Merging edge (873959 873960) since length 0 << 1.99997e-11
Merging edge (873960 873961) since length 0 << 1.99997e-11
Merging edge (873961 873962) since length 0 << 1.99997e-11
Merging edge (873962 873963) since length 0 << 1.99997e-11
Merging edge (873963 873964) since length 0 << 1.99997e-11
Merging edge (873964 873965) since length 0 << 1.99997e-11
Merging edge (873965 873966) since length 0 << 1.99997e-11
Merging edge (873966 873967) since length 0 << 1.99997e-11
Merging edge (873967 873968) since length 0 << 1.99997e-11
Merging edge (873968 873969) since length 0 << 1.99997e-11
Merging edge (873969 873970) since length 0 << 1.99997e-11
Merging edge (873970 873971) since length 0 << 1.99997e-11
Merging edge (873971 873972) since length 0 << 1.99997e-11
Merging edge (873972 873973) since length 0 << 1.99997e-11
Merging edge (873973 873974) since length 0 << 1.99997e-11
Merging edge (873974 873975) since length 0 << 1.99997e-11
Merging edge (873975 873976) since length 0 << 1.99997e-11
Merging edge (873976 873977) since length 0 << 1.99997e-11
Merging edge (873977 873978) since length 0 << 1.99997e-11
Merging edge (873978 873979) since length 0 << 1.99997e-11
Merging edge (873979 873980) since length 0 << 1.99997e-11
Merging edge (873980 873981) since length 0 << 1.99997e-11
Merging edge (873981 873982) since length 0 << 1.99997e-11
Merging edge (873982 873983) since length 0 << 1.99997e-11
Merging edge (873983 873984) since length 0 << 1.99997e-11
Merging edge (873984 873985) since length 0 << 1.99997e-11
Merging edge (873985 873986) since length 0 << 1.99997e-11
Merging edge (873986 873987) since length 0 << 1.99997e-11
Merging edge (873987 873988) since length 0 << 1.99997e-11
Merging edge (873988 873989) since length 0 << 1.99997e-11
Merging edge (873989 873990) since length 0 << 1.99997e-11
Merging edge (873990 873991) since length 0 << 1.99997e-11
Merging edge (873991 873992) since length 0 << 1.99997e-11
Merging edge (873992 873993) since length 0 << 1.99997e-11
Merging edge (873993 873994) since length 0 << 1.99997e-11
Merging edge (873994 873995) since length 0 << 1.99997e-11
Merging edge (873995 873996) since length 0 << 1.99997e-11
Merging edge (873996 873997) since length 0 << 1.99997e-11
Merging edge (873997 873998) since length 0 << 1.99997e-11
Merging edge (873998 873999) since length 0 << 1.99997e-11
Merging edge (873999 874000) since length 0 << 1.99997e-11
Merging edge (874000 874001) since length 0 << 1.99997e-11
Merging edge (874001 874002) since length 0 << 1.99997e-11
Merging edge (874002 874003) since length 0 << 1.99997e-11
Merging edge (874003 874004) since length 0 << 1.99997e-11
Merging edge (874004 874005) since length 0 << 1.99997e-11
Merging edge (874005 874006) since length 0 << 1.99997e-11
Merging edge (874006 874007) since length 0 << 1.99997e-11
Merging edge (874007 874008) since length 0 << 1.99997e-11
Merging edge (874008 874009) since length 0 << 1.99997e-11
Merging edge (874009 874010) since length 0 << 1.99997e-11
Merging edge (874010 874011) since length 0 << 1.99997e-11
Merging edge (874011 874012) since length 0 << 1.99997e-11
Merging edge (874012 874013) since length 0 << 1.99997e-11
Merging edge (874013 874014) since length 0 << 1.99997e-11
Merging edge (874014 874015) since length 0 << 1.99997e-11
Merging edge (874015 874016) since length 0 << 1.99997e-11
Merging edge (874016 874017) since length 0 << 1.99997e-11
Merging edge (874017 874018) since length 0 << 1.99997e-11
Merging edge (874018 874019) since length 0 << 1.99997e-11
Merging edge (874019 874020) since length 0 << 1.99997e-11
Merging edge (874020 874021) since length 0 << 1.99997e-11
Merging edge (874021 874022) since length 0 << 1.99997e-11
Merging edge (874022 874023) since length 0 << 1.99997e-11
Merging edge (874023 874024) since length 0 << 1.99997e-11
Merging edge (874024 874025) since length 0 << 1.99997e-11
Merging edge (874025 874026) since length 0 << 1.99997e-11
Merging edge (874026 874027) since length 0 << 1.99997e-11
Merging edge (874027 874028) since length 0 << 1.99997e-11
Merging edge (874028 874029) since length 0 << 1.99997e-11
Merging edge (874029 874030) since length 0 << 1.99997e-11
Merging edge (874030 874031) since length 0 << 1.99997e-11
Merging edge (874031 874032) since length 0 << 1.99997e-11
Merging edge (874032 874033) since length 0 << 1.99997e-11
Merging edge (874033 874034) since length 0 << 1.99997e-11
Merging edge (874034 874035) since length 0 << 1.99997e-11
Merging edge (874035 874036) since length 0 << 1.99997e-11
Merging edge (874036 874037) since length 0 << 1.99997e-11
Merging edge (874037 874038) since length 0 << 1.99997e-11
Merging edge (874038 874039) since length 0 << 1.99997e-11
Merging edge (874039 874040) since length 0 << 1.99997e-11
Merging edge (874040 874041) since length 0 << 1.99997e-11
Merging edge (874041 874042) since length 0 << 1.99997e-11
Merging edge (874042 874043) since length 0 << 1.99997e-11
Merging edge (874043 874044) since length 0 << 1.99997e-11
Merging edge (874044 874045) since length 0 << 1.99997e-11
Merging edge (874045 874046) since length 0 << 1.99997e-11
Merging edge (874046 874047) since length 0 << 1.99997e-11
Merging edge (874047 874048) since length 0 << 1.99997e-11
Merging edge (874048 874049) since length 0 << 1.99997e-11
Merging edge (874049 874050) since length 0 << 1.99997e-11
Merging edge (874050 874051) since length 0 << 1.99997e-11
Merging edge (874051 874052) since length 0 << 1.99997e-11
Merging edge (874052 874053) since length 0 << 1.99997e-11
Merging edge (874053 874054) since length 0 << 1.99997e-11
Merging edge (874054 874055) since length 0 << 1.99997e-11
Merging edge (874055 874056) since length 0 << 1.99997e-11
Merging edge (874056 874057) since length 0 << 1.99997e-11
Merging edge (874057 874058) since length 0 << 1.99997e-11
Merging edge (874058 874059) since length 0 << 1.99997e-11
Merging edge (874059 874060) since length 0 << 1.99997e-11
Merging edge (874060 874061) since length 0 << 1.99997e-11
Merging edge (874061 874062) since length 0 << 1.99997e-11
Merging edge (874062 874063) since length 0 << 1.99997e-11
Merging edge (874063 874064) since length 0 << 1.99997e-11
Merging edge (874064 874065) since length 0 << 1.99997e-11
Merging edge (874065 874066) since length 0 << 1.99997e-11
Merging edge (874066 874067) since length 0 << 1.99997e-11
Merging edge (874067 874068) since length 0 << 1.99997e-11
Merging edge (874068 874069) since length 0 << 1.99997e-11
Merging edge (874069 874070) since length 0 << 1.99997e-11
Merging edge (874070 874071) since length 0 << 1.99997e-11
Merging edge (874071 874072) since length 0 << 1.99997e-11
Merging edge (874072 874073) since length 0 << 1.99997e-11
Merging edge (874073 874074) since length 0 << 1.99997e-11
Merging edge (874074 874075) since length 0 << 1.99997e-11
Merging edge (874075 874076) since length 0 << 1.99997e-11
Merging edge (874076 874077) since length 0 << 1.99997e-11
Merging edge (874077 874078) since length 0 << 1.99997e-11
Merging edge (874078 874079) since length 0 << 1.99997e-11
Merging edge (874079 874080) since length 0 << 1.99997e-11
Merging edge (874080 874081) since length 0 << 1.99997e-11
Merging edge (874081 874082) since length 0 << 1.99997e-11
Merging edge (874082 874083) since length 0 << 1.99997e-11
Merging edge (874083 874084) since length 0 << 1.99997e-11
Merging edge (874084 874085) since length 0 << 1.99997e-11
Merging edge (874085 874086) since length 0 << 1.99997e-11
Merging edge (874086 874087) since length 0 << 1.99997e-11
Merging edge (874087 874088) since length 0 << 1.99997e-11
Merging edge (874088 874089) since length 0 << 1.99997e-11
Merging edge (874089 874090) since length 0 << 1.99997e-11
Merging edge (874090 874091) since length 0 << 1.99997e-11
Merging edge (874091 874092) since length 0 << 1.99997e-11
Merging edge (874092 874093) since length 0 << 1.99997e-11
Merging edge (874093 874094) since length 0 << 1.99997e-11
Merging edge (874094 874095) since length 0 << 1.99997e-11
Merging edge (874095 874096) since length 0 << 1.99997e-11
Merging edge (874096 874097) since length 0 << 1.99997e-11
Merging edge (874097 874098) since length 0 << 1.99997e-11
Merging edge (874098 874099) since length 0 << 1.99997e-11
Merging edge (874099 874100) since length 0 << 1.99997e-11
Merging edge (874100 874101) since length 0 << 1.99997e-11
Merging edge (874101 874102) since length 0 << 1.99997e-11
Merging edge (874102 874103) since length 0 << 1.99997e-11
Merging edge (874103 874104) since length 0 << 1.99997e-11
Merging edge (874104 874105) since length 0 << 1.99997e-11
Merging edge (874105 874106) since length 0 << 1.99997e-11
Merging edge (874106 874107) since length 0 << 1.99997e-11
Merging edge (874107 874108) since length 0 << 1.99997e-11
Merging edge (874108 874109) since length 0 << 1.99997e-11
Merging edge (874109 874110) since length 0 << 1.99997e-11
Merging edge (874110 874111) since length 0 << 1.99997e-11
Merging edge (874111 874112) since length 0 << 1.99997e-11
Merging edge (874112 874113) since length 0 << 1.99997e-11
Merging edge (874113 874114) since length 0 << 1.99997e-11
Merging edge (874114 874115) since length 0 << 1.99997e-11
Merging edge (874115 874116) since length 0 << 1.99997e-11
Merging edge (874116 874117) since length 0 << 1.99997e-11
Merging edge (874117 874118) since length 0 << 1.99997e-11
Merging edge (874118 874119) since length 0 << 1.99997e-11
Merging edge (874119 874120) since length 0 << 1.99997e-11
Merging edge (874120 874121) since length 0 << 1.99997e-11
Merging edge (874121 874122) since length 0 << 1.99997e-11
Merging edge (874122 874123) since length 0 << 1.99997e-11
Merging edge (874123 874124) since length 0 << 1.99997e-11
Merging edge (874124 874125) since length 0 << 1.99997e-11
Merging edge (874125 874126) since length 0 << 1.99997e-11
Merging edge (874126 874127) since length 0 << 1.99997e-11
Merging edge (874127 874128) since length 0 << 1.99997e-11
Merging edge (874128 874129) since length 0 << 1.99997e-11
Merging edge (874129 874130) since length 0 << 1.99997e-11
Merging edge (874130 874131) since length 0 << 1.99997e-11
Merging edge (874131 874132) since length 0 << 1.99997e-11
Merging edge (874132 874133) since length 0 << 1.99997e-11
Merging edge (874133 874134) since length 0 << 1.99997e-11
Merging edge (874134 874135) since length 0 << 1.99997e-11
Merging edge (874135 874136) since length 0 << 1.99997e-11
Merging edge (874136 874137) since length 0 << 1.99997e-11
Merging edge (874137 874138) since length 0 << 1.99997e-11
Merging edge (874138 874139) since length 0 << 1.99997e-11
Merging edge (874139 874140) since length 0 << 1.99997e-11
Merging edge (874140 874141) since length 0 << 1.99997e-11
Merging edge (874141 874142) since length 0 << 1.99997e-11
Merging edge (874142 874143) since length 0 << 1.99997e-11
Merging edge (874143 874144) since length 0 << 1.99997e-11
Merging edge (874144 874145) since length 0 << 1.99997e-11
Merging edge (874145 874146) since length 0 << 1.99997e-11
Merging edge (874146 874147) since length 0 << 1.99997e-11
Merging edge (874147 874148) since length 0 << 1.99997e-11
Merging edge (874148 874149) since length 0 << 1.99997e-11
Merging edge (874149 874150) since length 0 << 1.99997e-11
Merging edge (874150 874151) since length 0 << 1.99997e-11
Merging edge (874151 874152) since length 0 << 1.99997e-11
Merging edge (874152 874153) since length 0 << 1.99997e-11
Merging edge (874153 874154) since length 0 << 1.99997e-11
Merging edge (874154 874155) since length 0 << 1.99997e-11
Merging edge (874155 874156) since length 0 << 1.99997e-11
Merging edge (874156 874157) since length 0 << 1.99997e-11
Merging edge (874157 874158) since length 0 << 1.99997e-11
Merging edge (874158 874159) since length 0 << 1.99997e-11
Merging edge (874159 874160) since length 0 << 1.99997e-11
Merging edge (874160 874161) since length 0 << 1.99997e-11
Merging edge (874161 874162) since length 0 << 1.99997e-11
Merging edge (874162 874163) since length 0 << 1.99997e-11
Merging edge (874163 874164) since length 0 << 1.99997e-11
Merging edge (874164 874165) since length 0 << 1.99997e-11
Merging edge (874165 874166) since length 0 << 1.99997e-11
Merging edge (874166 874167) since length 0 << 1.99997e-11
Merging edge (874167 874168) since length 0 << 1.99997e-11
Merging edge (874168 874169) since length 0 << 1.99997e-11
Merging edge (874169 874170) since length 0 << 1.99997e-11
Merging edge (874170 874171) since length 0 << 1.99997e-11
Merging edge (874171 874172) since length 0 << 1.99997e-11
Merging edge (874172 874173) since length 0 << 1.99997e-11
Merging edge (874173 874174) since length 0 << 1.99997e-11
Merging edge (874174 874175) since length 0 << 1.99997e-11
Merging edge (874175 874176) since length 0 << 1.99997e-11
Merging edge (874176 874177) since length 0 << 1.99997e-11
Merging edge (874177 874178) since length 0 << 1.99997e-11
Merging edge (874178 874179) since length 0 << 1.99997e-11
Merging edge (874179 874180) since length 0 << 1.99997e-11
Merging edge (874180 874181) since length 0 << 1.99997e-11
Merging edge (874181 874182) since length 0 << 1.99997e-11
Merging edge (874182 874183) since length 0 << 1.99997e-11
Merging edge (874183 874184) since length 0 << 1.99997e-11
Merging edge (874184 874185) since length 0 << 1.99997e-11
Merging edge (874185 874186) since length 0 << 1.99997e-11
Merging edge (874186 874187) since length 0 << 1.99997e-11
Merging edge (874187 874188) since length 0 << 1.99997e-11
Merging edge (874188 874189) since length 0 << 1.99997e-11
Merging edge (874189 874190) since length 0 << 1.99997e-11
Merging edge (874190 874191) since length 0 << 1.99997e-11
Merging edge (874191 874192) since length 0 << 1.99997e-11
Merging edge (874192 874193) since length 0 << 1.99997e-11
Merging edge (874193 874194) since length 0 << 1.99997e-11
Merging edge (874194 874195) since length 0 << 1.99997e-11
Merging edge (874195 874196) since length 0 << 1.99997e-11
Merging edge (874196 874197) since length 0 << 1.99997e-11
Merging edge (874197 874198) since length 0 << 1.99997e-11
Merging edge (874198 874199) since length 0 << 1.99997e-11
Merging edge (874199 874200) since length 0 << 1.99997e-11
Merging edge (874200 874201) since length 0 << 1.99997e-11
Merging edge (874201 874202) since length 0 << 1.99997e-11
Merging edge (874202 874203) since length 0 << 1.99997e-11
Merging edge (874203 874204) since length 0 << 1.99997e-11
Merging edge (874204 874205) since length 0 << 1.99997e-11
Merging edge (874205 874206) since length 0 << 1.99997e-11
Merging edge (874206 874207) since length 0 << 1.99997e-11
Merging edge (874207 874208) since length 0 << 1.99997e-11
Merging edge (874208 874209) since length 0 << 1.99997e-11
Merging edge (874209 874210) since length 0 << 1.99997e-11
Merging edge (874210 874211) since length 0 << 1.99997e-11
Merging edge (874211 874212) since length 0 << 1.99997e-11
Merging edge (874212 874213) since length 0 << 1.99997e-11
Merging edge (874213 874214) since length 0 << 1.99997e-11
Merging edge (874214 874215) since length 0 << 1.99997e-11
Merging edge (874215 874216) since length 0 << 1.99997e-11
Merging edge (874216 874217) since length 0 << 1.99997e-11
Merging edge (874217 874218) since length 0 << 1.99997e-11
Merging edge (874218 874219) since length 0 << 1.99997e-11
Merging edge (874219 874220) since length 0 << 1.99997e-11
Merging edge (874220 874221) since length 0 << 1.99997e-11
Merging edge (874221 874222) since length 0 << 1.99997e-11
Merging edge (874222 874223) since length 0 << 1.99997e-11
Merging edge (874223 874224) since length 0 << 1.99997e-11
            Uncollapsed edges = 0 / 2577456
    Number of points : 874225
    Not visited      : 0
    Not collapsed    : 867000
    Collapsed        : 7225

Collapsing 0 cells
Assuming full 360 degree axisymmetric case; stitching faces on patches top and top together ...

Writing mesh to "/Volumes/OpenFoam/aaronmullen-hales-v2312/run/PHDS1/cardiacFoam/tutorials/LandEtAl2015/problem2/run_Apple_M4_Pro_20250318_150243/hex.hypre.4/constant/region0"

End

