/*---------------------------------------------------------------------------*\
| =========                 |                                                 |
| \\      /  F ield         | OpenFOAM: The Open Source CFD Toolbox           |
|  \\    /   O peration     | Version:  2412                                  |
|   \\  /    A nd           | Website:  www.openfoam.com                      |
|    \\/     M anipulation  |                                                 |
\*---------------------------------------------------------------------------*/
Build  : _8dbc61e11c-20241220 OPENFOAM=2412 version=v2412
Arch   : "LSB;label=32;scalar=64"
Exec   : cardiacFoam -parallel
Date   : Mar 19 2026
Time   : 13:07:13
Host   : macbook
PID    : 79935
I/O    : uncollated
Case   : /Users/simaocastro/cardiacFoamv2/tutorials/manufacturedFDA
nProcs : 6
Hosts  :
(
    (macbook 6)
)
Pstream initialized with:
    floatTransfer      : false
    maxCommsSize       : 0
    nProcsSimpleSum    : 0
    nonBlockingExchange: 0 (tuning: 0)
    exchange algorithm : 0
    commsType          : nonBlocking
    polling iterations : 0
trapFpe: Floating point exception trapping enabled (FOAM_SIGFPE).
fileModificationChecking : Monitoring run-time modified files using timeStampMaster (fileModificationSkew 5, maxFileModificationPolls 20)
allowSystemOperations : Allowing user-supplied system call operations

// * * * * * * * * * * * * * * * * * * * * * * * * * * * * * * * * * * * * * //
Create time

Selecting physicsModel electroModel

Selecting electroModel monoDomainElectro

conductivity not found on disk, using value from "/Users/simaocastro/cardiacFoamv2/tutorials/manufacturedFDA/processor0/../constant/electroProperties/monoDomainElectroCoeffs"

conductivity tensor (cell 0): (0.111453 0 0 0 0.121585 0 0 0 0.0303964)
--> FOAM Warning : 
    From Foam::electroModels::monoDomainElectro::monoDomainElectro(const word &, Time &, const word &)
    in file monoDomainElectro/monoDomainElectro.C at line 321
    Stimulus box index 0 does not contain any mesh cells.
---------------------------------------------
Stimulus source dictionary: monodomainStimulus
3D mesh detected — stimulus parameters:
Stimulus boxes: 1
Number of cells in stimulus region: 0
Stimulus duration list: 1(0)
Stimulus start time(s): 1(0)
Stimulus intensity list: 1(0)
---------------------------------------------
Surface-to-volume ratio chi = chi [0 -1 0 0 0 0 0] 3
Membrane capacitance Cm = Cm [-1 -4 4 0 0 2 0] 2

Using pre/post processor tmanufacturedFDA for ionic model tmanufacturedFDA.
Running preProcess with fields 3(u1 u2 u3).
Time = 3.50471e-05

Solving the mono-domain equation for Vm using an implicit approach
DEBUG cell=0 t=0→3.50471e-05 step=3.50471e-05 V=-0.563353 u1=0.436647 u2=1 u3=0 Iion=0
Selecting ODE solver RKF45
DEBUG cell=0 t=0→3.50471e-05 step=0.000315424 V=-0.563353 u1=0.436672 u2=0.999965 u3=0 Iion=2.17827

PIMPLE: no residual control data found. Calculations will employ 2 corrector loops

PIMPLE: iteration 1
DICPCG:  Solving for Vm, Initial residual = 8.76514e-06, Final residual = 5.80892e-17, No Iterations 5
PIMPLE: iteration 2
DICPCG:  Solving for Vm, Initial residual = 1.21793e-16, Final residual = 1.21793e-16, No Iterations 0
ExecutionTime = 1.07 s  ClockTime = 2 s

Time = 7.00942e-05

DEBUG cell=0 t=3.50471e-05→7.00942e-05 step=3.50471e-05 V=-0.563363 u1=0.436672 u2=0.999965 u3=0 Iion=2.17827
DEBUG cell=0 t=3.50471e-05→7.00942e-05 step=0.000315424 V=-0.563363 u1=0.436697 u2=0.99993 u3=0 Iion=2.17829
PIMPLE: iteration 1
DICPCG:  Solving for Vm, Initial residual = 8.76488e-06, Final residual = 8.42463e-16, No Iterations 4
PIMPLE: iteration 2
DICPCG:  Solving for Vm, Initial residual = 8.53748e-16, Final residual = 8.53748e-16, No Iterations 0
ExecutionTime = 1.68 s  ClockTime = 2 s

Time = 0.000105141

DEBUG cell=0 t=7.00942e-05→0.000105141 step=3.50471e-05 V=-0.563373 u1=0.436697 u2=0.99993 u3=0 Iion=2.17829
DEBUG cell=0 t=7.00942e-05→0.000105141 step=0.000315424 V=-0.563373 u1=0.436722 u2=0.999895 u3=0 Iion=2.17831
PIMPLE: iteration 1
DICPCG:  Solving for Vm, Initial residual = 8.76459e-06, Final residual = 8.42435e-16, No Iterations 4
PIMPLE: iteration 2
DICPCG:  Solving for Vm, Initial residual = 8.53759e-16, Final residual = 8.53759e-16, No Iterations 0
ExecutionTime = 2.23 s  ClockTime = 3 s

Time = 0.000140188

DEBUG cell=0 t=0.000105141→0.000140188 step=3.50471e-05 V=-0.563383 u1=0.436722 u2=0.999895 u3=0 Iion=2.17831
DEBUG cell=0 t=0.000105141→0.000140188 step=0.000315424 V=-0.563383 u1=0.436748 u2=0.99986 u3=0 Iion=2.17833
PIMPLE: iteration 1
DICPCG:  Solving for Vm, Initial residual = 8.76429e-06, Final residual = 8.42406e-16, No Iterations 4
PIMPLE: iteration 2
DICPCG:  Solving for Vm, Initial residual = 8.53721e-16, Final residual = 8.53721e-16, No Iterations 0
ExecutionTime = 2.78 s  ClockTime = 3 s

Time = 0.000175235

DEBUG cell=0 t=0.000140188→0.000175235 step=3.50471e-05 V=-0.563393 u1=0.436748 u2=0.99986 u3=0 Iion=2.17833
DEBUG cell=0 t=0.000140188→0.000175235 step=0.000315424 V=-0.563393 u1=0.436773 u2=0.999825 u3=0 Iion=2.17835
PIMPLE: iteration 1
DICPCG:  Solving for Vm, Initial residual = 8.76398e-06, Final residual = 8.42377e-16, No Iterations 4
PIMPLE: iteration 2
DICPCG:  Solving for Vm, Initial residual = 8.53777e-16, Final residual = 8.53777e-16, No Iterations 0
ExecutionTime = 3.34 s  ClockTime = 4 s

Time = 0.000210283

DEBUG cell=0 t=0.000175235→0.000210283 step=3.50471e-05 V=-0.563403 u1=0.436773 u2=0.999825 u3=0 Iion=2.17835
DEBUG cell=0 t=0.000175235→0.000210283 step=0.000315424 V=-0.563403 u1=0.436798 u2=0.99979 u3=0 Iion=2.17837
PIMPLE: iteration 1
DICPCG:  Solving for Vm, Initial residual = 8.76368e-06, Final residual = 8.42347e-16, No Iterations 4
PIMPLE: iteration 2
DICPCG:  Solving for Vm, Initial residual = 8.53664e-16, Final residual = 8.53664e-16, No Iterations 0
ExecutionTime = 3.88 s  ClockTime = 5 s

Time = 0.00024533

DEBUG cell=0 t=0.000210283→0.00024533 step=3.50471e-05 V=-0.563412 u1=0.436798 u2=0.99979 u3=0 Iion=2.17837
DEBUG cell=0 t=0.000210283→0.00024533 step=0.000315424 V=-0.563412 u1=0.436823 u2=0.999755 u3=0 Iion=2.17838
PIMPLE: iteration 1
DICPCG:  Solving for Vm, Initial residual = 8.76337e-06, Final residual = 8.42318e-16, No Iterations 4
PIMPLE: iteration 2
DICPCG:  Solving for Vm, Initial residual = 8.5367e-16, Final residual = 8.5367e-16, No Iterations 0
ExecutionTime = 4.44 s  ClockTime = 5 s

Time = 0.000280377

DEBUG cell=0 t=0.00024533→0.000280377 step=3.50471e-05 V=-0.563422 u1=0.436823 u2=0.999755 u3=0 Iion=2.17838
DEBUG cell=0 t=0.00024533→0.000280377 step=0.000315424 V=-0.563422 u1=0.436848 u2=0.99972 u3=0 Iion=2.1784
PIMPLE: iteration 1
DICPCG:  Solving for Vm, Initial residual = 8.76306e-06, Final residual = 8.42288e-16, No Iterations 4
PIMPLE: iteration 2
DICPCG:  Solving for Vm, Initial residual = 8.53613e-16, Final residual = 8.53613e-16, No Iterations 0
ExecutionTime = 5.01 s  ClockTime = 6 s

Time = 0.000315424

DEBUG cell=0 t=0.000280377→0.000315424 step=3.50471e-05 V=-0.563432 u1=0.436848 u2=0.99972 u3=0 Iion=2.1784
DEBUG cell=0 t=0.000280377→0.000315424 step=0.000315424 V=-0.563432 u1=0.436873 u2=0.999685 u3=0 Iion=2.17842
PIMPLE: iteration 1
DICPCG:  Solving for Vm, Initial residual = 8.76276e-06, Final residual = 8.42259e-16, No Iterations 4
PIMPLE: iteration 2
DICPCG:  Solving for Vm, Initial residual = 8.53568e-16, Final residual = 8.53568e-16, No Iterations 0
ExecutionTime = 5.64 s  ClockTime = 6 s

Time = 0.000350471

DEBUG cell=0 t=0.000315424→0.000350471 step=3.50471e-05 V=-0.563442 u1=0.436873 u2=0.999685 u3=0 Iion=2.17842
DEBUG cell=0 t=0.000315424→0.000350471 step=0.000315424 V=-0.563442 u1=0.436899 u2=0.99965 u3=0 Iion=2.17844
PIMPLE: iteration 1
DICPCG:  Solving for Vm, Initial residual = 8.76245e-06, Final residual = 8.42229e-16, No Iterations 4
PIMPLE: iteration 2
DICPCG:  Solving for Vm, Initial residual = 8.53613e-16, Final residual = 8.53613e-16, No Iterations 0
ExecutionTime = 6.37 s  ClockTime = 7 s

Time = 0.000385518

DEBUG cell=0 t=0.000350471→0.000385518 step=3.50471e-05 V=-0.563452 u1=0.436899 u2=0.99965 u3=0 Iion=2.17844
DEBUG cell=0 t=0.000350471→0.000385518 step=0.000315424 V=-0.563452 u1=0.436924 u2=0.999615 u3=0 Iion=2.17846
PIMPLE: iteration 1
DICPCG:  Solving for Vm, Initial residual = 8.76214e-06, Final residual = 8.422e-16, No Iterations 4
PIMPLE: iteration 2
DICPCG:  Solving for Vm, Initial residual = 8.53592e-16, Final residual = 8.53592e-16, No Iterations 0
ExecutionTime = 7.29 s  ClockTime = 8 s

Time = 0.000420565

DEBUG cell=0 t=0.000385518→0.000420565 step=3.50471e-05 V=-0.563462 u1=0.436924 u2=0.999615 u3=0 Iion=2.17846
DEBUG cell=0 t=0.000385518→0.000420565 step=0.000315424 V=-0.563462 u1=0.436949 u2=0.99958 u3=0 Iion=2.17848
PIMPLE: iteration 1
DICPCG:  Solving for Vm, Initial residual = 8.76184e-06, Final residual = 8.4217e-16, No Iterations 4
PIMPLE: iteration 2
DICPCG:  Solving for Vm, Initial residual = 8.53468e-16, Final residual = 8.53468e-16, No Iterations 0
ExecutionTime = 8.23 s  ClockTime = 9 s

Time = 0.000455612

DEBUG cell=0 t=0.000420565→0.000455612 step=3.50471e-05 V=-0.563472 u1=0.436949 u2=0.99958 u3=0 Iion=2.17848
DEBUG cell=0 t=0.000420565→0.000455612 step=0.000315424 V=-0.563472 u1=0.436974 u2=0.999545 u3=0 Iion=2.17849
PIMPLE: iteration 1
DICPCG:  Solving for Vm, Initial residual = 8.76153e-06, Final residual = 8.42141e-16, No Iterations 4
PIMPLE: iteration 2
DICPCG:  Solving for Vm, Initial residual = 8.5344e-16, Final residual = 8.5344e-16, No Iterations 0
ExecutionTime = 9.15 s  ClockTime = 10 s

Time = 0.000490659

DEBUG cell=0 t=0.000455612→0.000490659 step=3.50471e-05 V=-0.563482 u1=0.436974 u2=0.999545 u3=0 Iion=2.17849
DEBUG cell=0 t=0.000455612→0.000490659 step=0.000315424 V=-0.563482 u1=0.436999 u2=0.99951 u3=0 Iion=2.17851
PIMPLE: iteration 1
DICPCG:  Solving for Vm, Initial residual = 8.76122e-06, Final residual = 8.42111e-16, No Iterations 4
PIMPLE: iteration 2
DICPCG:  Solving for Vm, Initial residual = 8.53517e-16, Final residual = 8.53517e-16, No Iterations 0
ExecutionTime = 10.03 s  ClockTime = 11 s

Time = 0.000525706

DEBUG cell=0 t=0.000490659→0.000525706 step=3.50471e-05 V=-0.563491 u1=0.436999 u2=0.99951 u3=0 Iion=2.17851
DEBUG cell=0 t=0.000490659→0.000525706 step=0.000315424 V=-0.563491 u1=0.437024 u2=0.999475 u3=0 Iion=2.17853
PIMPLE: iteration 1
DICPCG:  Solving for Vm, Initial residual = 8.76092e-06, Final residual = 8.42082e-16, No Iterations 4
PIMPLE: iteration 2
DICPCG:  Solving for Vm, Initial residual = 8.53474e-16, Final residual = 8.53474e-16, No Iterations 0
ExecutionTime = 10.91 s  ClockTime = 12 s

Time = 0.000560754

DEBUG cell=0 t=0.000525706→0.000560754 step=3.50471e-05 V=-0.563501 u1=0.437024 u2=0.999475 u3=0 Iion=2.17853
DEBUG cell=0 t=0.000525706→0.000560754 step=0.000315424 V=-0.563501 u1=0.43705 u2=0.99944 u3=0 Iion=2.17855
PIMPLE: iteration 1
DICPCG:  Solving for Vm, Initial residual = 8.76061e-06, Final residual = 8.42052e-16, No Iterations 4
PIMPLE: iteration 2
DICPCG:  Solving for Vm, Initial residual = 8.53417e-16, Final residual = 8.53417e-16, No Iterations 0
ExecutionTime = 11.74 s  ClockTime = 13 s

Time = 0.000595801

DEBUG cell=0 t=0.000560754→0.000595801 step=3.50471e-05 V=-0.563511 u1=0.43705 u2=0.99944 u3=0 Iion=2.17855
DEBUG cell=0 t=0.000560754→0.000595801 step=0.000315424 V=-0.563511 u1=0.437075 u2=0.999405 u3=0 Iion=2.17857
PIMPLE: iteration 1
DICPCG:  Solving for Vm, Initial residual = 8.7603e-06, Final residual = 8.42023e-16, No Iterations 4
PIMPLE: iteration 2
DICPCG:  Solving for Vm, Initial residual = 8.53319e-16, Final residual = 8.53319e-16, No Iterations 0
ExecutionTime = 12.51 s  ClockTime = 13 s

Time = 0.000630848

DEBUG cell=0 t=0.000595801→0.000630848 step=3.50471e-05 V=-0.563521 u1=0.437075 u2=0.999405 u3=0 Iion=2.17857
DEBUG cell=0 t=0.000595801→0.000630848 step=0.000315424 V=-0.563521 u1=0.4371 u2=0.99937 u3=0 Iion=2.17859
PIMPLE: iteration 1
DICPCG:  Solving for Vm, Initial residual = 8.76e-06, Final residual = 8.41994e-16, No Iterations 4
PIMPLE: iteration 2
DICPCG:  Solving for Vm, Initial residual = 8.53378e-16, Final residual = 8.53378e-16, No Iterations 0
ExecutionTime = 13.34 s  ClockTime = 14 s

Time = 0.000665895

DEBUG cell=0 t=0.000630848→0.000665895 step=3.50471e-05 V=-0.563531 u1=0.4371 u2=0.99937 u3=0 Iion=2.17859
DEBUG cell=0 t=0.000630848→0.000665895 step=0.000315424 V=-0.563531 u1=0.437125 u2=0.999335 u3=0 Iion=2.17861
PIMPLE: iteration 1
DICPCG:  Solving for Vm, Initial residual = 8.75969e-06, Final residual = 8.41964e-16, No Iterations 4
PIMPLE: iteration 2
DICPCG:  Solving for Vm, Initial residual = 8.53505e-16, Final residual = 8.53505e-16, No Iterations 0
ExecutionTime = 14.19 s  ClockTime = 15 s

Time = 0.000700942

DEBUG cell=0 t=0.000665895→0.000700942 step=3.50471e-05 V=-0.563541 u1=0.437125 u2=0.999335 u3=0 Iion=2.17861
DEBUG cell=0 t=0.000665895→0.000700942 step=0.000315424 V=-0.563541 u1=0.43715 u2=0.9993 u3=0 Iion=2.17862
PIMPLE: iteration 1
DICPCG:  Solving for Vm, Initial residual = 8.75938e-06, Final residual = 8.41935e-16, No Iterations 4
PIMPLE: iteration 2
DICPCG:  Solving for Vm, Initial residual = 8.53272e-16, Final residual = 8.53272e-16, No Iterations 0
ExecutionTime = 15.02 s  ClockTime = 16 s

Time = 0.000735989

DEBUG cell=0 t=0.000700942→0.000735989 step=3.50471e-05 V=-0.563551 u1=0.43715 u2=0.9993 u3=0 Iion=2.17862
DEBUG cell=0 t=0.000700942→0.000735989 step=0.000315424 V=-0.563551 u1=0.437176 u2=0.999265 u3=0 Iion=2.17864
PIMPLE: iteration 1
DICPCG:  Solving for Vm, Initial residual = 8.75908e-06, Final residual = 8.41905e-16, No Iterations 4
PIMPLE: iteration 2
DICPCG:  Solving for Vm, Initial residual = 8.53289e-16, Final residual = 8.53289e-16, No Iterations 0
ExecutionTime = 15.84 s  ClockTime = 17 s

Time = 0.000771036

DEBUG cell=0 t=0.000735989→0.000771036 step=3.50471e-05 V=-0.563561 u1=0.437176 u2=0.999265 u3=0 Iion=2.17864
DEBUG cell=0 t=0.000735989→0.000771036 step=0.000315424 V=-0.563561 u1=0.437201 u2=0.99923 u3=0 Iion=2.17866
PIMPLE: iteration 1
DICPCG:  Solving for Vm, Initial residual = 8.75877e-06, Final residual = 8.41876e-16, No Iterations 4
PIMPLE: iteration 2
DICPCG:  Solving for Vm, Initial residual = 8.53273e-16, Final residual = 8.53273e-16, No Iterations 0
ExecutionTime = 16.67 s  ClockTime = 18 s

Time = 0.000806083

DEBUG cell=0 t=0.000771036→0.000806083 step=3.50471e-05 V=-0.56357 u1=0.437201 u2=0.99923 u3=0 Iion=2.17866
DEBUG cell=0 t=0.000771036→0.000806083 step=0.000315424 V=-0.56357 u1=0.437226 u2=0.999195 u3=0 Iion=2.17868
PIMPLE: iteration 1
DICPCG:  Solving for Vm, Initial residual = 8.75846e-06, Final residual = 8.41846e-16, No Iterations 4
PIMPLE: iteration 2
DICPCG:  Solving for Vm, Initial residual = 8.53156e-16, Final residual = 8.53156e-16, No Iterations 0
ExecutionTime = 17.52 s  ClockTime = 18 s

Time = 0.00084113

DEBUG cell=0 t=0.000806083→0.00084113 step=3.50471e-05 V=-0.56358 u1=0.437226 u2=0.999195 u3=0 Iion=2.17868
DEBUG cell=0 t=0.000806083→0.00084113 step=0.000315424 V=-0.56358 u1=0.437251 u2=0.99916 u3=0 Iion=2.1787
PIMPLE: iteration 1
DICPCG:  Solving for Vm, Initial residual = 8.75816e-06, Final residual = 8.41817e-16, No Iterations 4
PIMPLE: iteration 2
DICPCG:  Solving for Vm, Initial residual = 8.53256e-16, Final residual = 8.53256e-16, No Iterations 0
ExecutionTime = 18.39 s  ClockTime = 19 s

Time = 0.000876177

DEBUG cell=0 t=0.00084113→0.000876177 step=3.50471e-05 V=-0.56359 u1=0.437251 u2=0.99916 u3=0 Iion=2.1787
DEBUG cell=0 t=0.00084113→0.000876177 step=0.000315424 V=-0.56359 u1=0.437276 u2=0.999125 u3=0 Iion=2.17872
PIMPLE: iteration 1
DICPCG:  Solving for Vm, Initial residual = 8.75785e-06, Final residual = 8.41787e-16, No Iterations 4
PIMPLE: iteration 2
DICPCG:  Solving for Vm, Initial residual = 8.53235e-16, Final residual = 8.53235e-16, No Iterations 0
ExecutionTime = 19.24 s  ClockTime = 20 s

Time = 0.000911225

DEBUG cell=0 t=0.000876177→0.000911225 step=3.50471e-05 V=-0.5636 u1=0.437276 u2=0.999125 u3=0 Iion=2.17872
DEBUG cell=0 t=0.000876177→0.000911225 step=0.000315424 V=-0.5636 u1=0.437301 u2=0.99909 u3=0 Iion=2.17873
PIMPLE: iteration 1
DICPCG:  Solving for Vm, Initial residual = 8.75754e-06, Final residual = 8.41758e-16, No Iterations 4
PIMPLE: iteration 2
DICPCG:  Solving for Vm, Initial residual = 8.53075e-16, Final residual = 8.53075e-16, No Iterations 0
ExecutionTime = 20.09 s  ClockTime = 21 s

Time = 0.000946272

DEBUG cell=0 t=0.000911225→0.000946272 step=3.50471e-05 V=-0.56361 u1=0.437301 u2=0.99909 u3=0 Iion=2.17873
DEBUG cell=0 t=0.000911225→0.000946272 step=0.000315424 V=-0.56361 u1=0.437327 u2=0.999055 u3=0 Iion=2.17875
PIMPLE: iteration 1
DICPCG:  Solving for Vm, Initial residual = 8.75724e-06, Final residual = 8.41728e-16, No Iterations 4
PIMPLE: iteration 2
DICPCG:  Solving for Vm, Initial residual = 8.53079e-16, Final residual = 8.53079e-16, No Iterations 0
ExecutionTime = 20.91 s  ClockTime = 22 s

Time = 0.000981319

DEBUG cell=0 t=0.000946272→0.000981319 step=3.50471e-05 V=-0.56362 u1=0.437327 u2=0.999055 u3=0 Iion=2.17875
DEBUG cell=0 t=0.000946272→0.000981319 step=0.000315424 V=-0.56362 u1=0.437352 u2=0.99902 u3=0 Iion=2.17877
PIMPLE: iteration 1
DICPCG:  Solving for Vm, Initial residual = 8.75693e-06, Final residual = 8.41699e-16, No Iterations 4
PIMPLE: iteration 2
DICPCG:  Solving for Vm, Initial residual = 8.53088e-16, Final residual = 8.53088e-16, No Iterations 0
ExecutionTime = 21.78 s  ClockTime = 23 s

Time = 0.00101637

DEBUG cell=0 t=0.000981319→0.00101637 step=3.50471e-05 V=-0.56363 u1=0.437352 u2=0.99902 u3=0 Iion=2.17877
DEBUG cell=0 t=0.000981319→0.00101637 step=0.000315424 V=-0.56363 u1=0.437377 u2=0.998985 u3=0 Iion=2.17879
PIMPLE: iteration 1
DICPCG:  Solving for Vm, Initial residual = 8.75662e-06, Final residual = 8.41669e-16, No Iterations 4
PIMPLE: iteration 2
DICPCG:  Solving for Vm, Initial residual = 8.53148e-16, Final residual = 8.53148e-16, No Iterations 0
ExecutionTime = 22.63 s  ClockTime = 24 s

Time = 0.00105141

DEBUG cell=0 t=0.00101637→0.00105141 step=3.50471e-05 V=-0.56364 u1=0.437377 u2=0.998985 u3=0 Iion=2.17879
DEBUG cell=0 t=0.00101637→0.00105141 step=0.000315424 V=-0.56364 u1=0.437402 u2=0.99895 u3=0 Iion=2.17881
PIMPLE: iteration 1
DICPCG:  Solving for Vm, Initial residual = 8.75632e-06, Final residual = 8.4164e-16, No Iterations 4
PIMPLE: iteration 2
DICPCG:  Solving for Vm, Initial residual = 8.53082e-16, Final residual = 8.53082e-16, No Iterations 0
ExecutionTime = 23.49 s  ClockTime = 24 s

Time = 0.00108646

DEBUG cell=0 t=0.00105141→0.00108646 step=3.50471e-05 V=-0.563649 u1=0.437402 u2=0.99895 u3=0 Iion=2.17881
DEBUG cell=0 t=0.00105141→0.00108646 step=0.000315424 V=-0.563649 u1=0.437427 u2=0.998915 u3=0 Iion=2.17883
PIMPLE: iteration 1
DICPCG:  Solving for Vm, Initial residual = 8.75601e-06, Final residual = 8.41611e-16, No Iterations 4
PIMPLE: iteration 2
DICPCG:  Solving for Vm, Initial residual = 8.52995e-16, Final residual = 8.52995e-16, No Iterations 0
ExecutionTime = 24.36 s  ClockTime = 25 s

Time = 0.00112151

DEBUG cell=0 t=0.00108646→0.00112151 step=3.50471e-05 V=-0.563659 u1=0.437427 u2=0.998915 u3=0 Iion=2.17883
DEBUG cell=0 t=0.00108646→0.00112151 step=0.000315424 V=-0.563659 u1=0.437453 u2=0.99888 u3=0 Iion=2.17885
PIMPLE: iteration 1
DICPCG:  Solving for Vm, Initial residual = 8.7557e-06, Final residual = 8.41581e-16, No Iterations 4
PIMPLE: iteration 2
DICPCG:  Solving for Vm, Initial residual = 8.52976e-16, Final residual = 8.52976e-16, No Iterations 0
ExecutionTime = 25.19 s  ClockTime = 26 s

Time = 0.00115655

DEBUG cell=0 t=0.00112151→0.00115655 step=3.50471e-05 V=-0.563669 u1=0.437453 u2=0.99888 u3=0 Iion=2.17885
DEBUG cell=0 t=0.00112151→0.00115655 step=0.000315424 V=-0.563669 u1=0.437478 u2=0.998845 u3=0 Iion=2.17886
PIMPLE: iteration 1
DICPCG:  Solving for Vm, Initial residual = 8.7554e-06, Final residual = 8.41552e-16, No Iterations 4
PIMPLE: iteration 2
DICPCG:  Solving for Vm, Initial residual = 8.52908e-16, Final residual = 8.52908e-16, No Iterations 0
ExecutionTime = 26 s  ClockTime = 27 s

Time = 0.0011916

DEBUG cell=0 t=0.00115655→0.0011916 step=3.50471e-05 V=-0.563679 u1=0.437478 u2=0.998845 u3=0 Iion=2.17886
DEBUG cell=0 t=0.00115655→0.0011916 step=0.000315424 V=-0.563679 u1=0.437503 u2=0.99881 u3=0 Iion=2.17888
PIMPLE: iteration 1
DICPCG:  Solving for Vm, Initial residual = 8.75509e-06, Final residual = 8.41522e-16, No Iterations 4
PIMPLE: iteration 2
DICPCG:  Solving for Vm, Initial residual = 8.52972e-16, Final residual = 8.52972e-16, No Iterations 0
ExecutionTime = 26.84 s  ClockTime = 28 s

Time = 0.00122665

DEBUG cell=0 t=0.0011916→0.00122665 step=3.50471e-05 V=-0.563689 u1=0.437503 u2=0.99881 u3=0 Iion=2.17888
DEBUG cell=0 t=0.0011916→0.00122665 step=0.000315424 V=-0.563689 u1=0.437528 u2=0.998775 u3=0 Iion=2.1789
PIMPLE: iteration 1
DICPCG:  Solving for Vm, Initial residual = 8.75479e-06, Final residual = 8.41493e-16, No Iterations 4
PIMPLE: iteration 2
DICPCG:  Solving for Vm, Initial residual = 8.52875e-16, Final residual = 8.52875e-16, No Iterations 0
ExecutionTime = 27.7 s  ClockTime = 29 s

Time = 0.0012617

DEBUG cell=0 t=0.00122665→0.0012617 step=3.50471e-05 V=-0.563699 u1=0.437528 u2=0.998775 u3=0 Iion=2.1789
DEBUG cell=0 t=0.00122665→0.0012617 step=0.000315424 V=-0.563699 u1=0.437553 u2=0.99874 u3=0 Iion=2.17892
PIMPLE: iteration 1
DICPCG:  Solving for Vm, Initial residual = 8.75448e-06, Final residual = 8.41463e-16, No Iterations 4
PIMPLE: iteration 2
DICPCG:  Solving for Vm, Initial residual = 8.52875e-16, Final residual = 8.52875e-16, No Iterations 0
ExecutionTime = 28.58 s  ClockTime = 30 s

Time = 0.00129674

DEBUG cell=0 t=0.0012617→0.00129674 step=3.50471e-05 V=-0.563709 u1=0.437553 u2=0.99874 u3=0 Iion=2.17892
DEBUG cell=0 t=0.0012617→0.00129674 step=0.000315424 V=-0.563709 u1=0.437578 u2=0.998705 u3=0 Iion=2.17894
PIMPLE: iteration 1
DICPCG:  Solving for Vm, Initial residual = 8.75417e-06, Final residual = 8.41434e-16, No Iterations 4
PIMPLE: iteration 2
DICPCG:  Solving for Vm, Initial residual = 8.52867e-16, Final residual = 8.52867e-16, No Iterations 0
ExecutionTime = 29.42 s  ClockTime = 30 s

Time = 0.00133179

DEBUG cell=0 t=0.00129674→0.00133179 step=3.50471e-05 V=-0.563718 u1=0.437578 u2=0.998705 u3=0 Iion=2.17894
DEBUG cell=0 t=0.00129674→0.00133179 step=0.000315424 V=-0.563718 u1=0.437604 u2=0.99867 u3=0 Iion=2.17896
PIMPLE: iteration 1
DICPCG:  Solving for Vm, Initial residual = 8.75387e-06, Final residual = 8.41404e-16, No Iterations 4
PIMPLE: iteration 2
DICPCG:  Solving for Vm, Initial residual = 8.52717e-16, Final residual = 8.52717e-16, No Iterations 0
ExecutionTime = 30.24 s  ClockTime = 31 s

Time = 0.00136684

DEBUG cell=0 t=0.00133179→0.00136684 step=3.50471e-05 V=-0.563728 u1=0.437604 u2=0.99867 u3=0 Iion=2.17896
DEBUG cell=0 t=0.00133179→0.00136684 step=0.000315424 V=-0.563728 u1=0.437629 u2=0.998635 u3=0 Iion=2.17897
PIMPLE: iteration 1
DICPCG:  Solving for Vm, Initial residual = 8.75356e-06, Final residual = 8.41375e-16, No Iterations 4
PIMPLE: iteration 2
DICPCG:  Solving for Vm, Initial residual = 8.52843e-16, Final residual = 8.52843e-16, No Iterations 0
ExecutionTime = 31.12 s  ClockTime = 32 s

Time = 0.00140188

DEBUG cell=0 t=0.00136684→0.00140188 step=3.50471e-05 V=-0.563738 u1=0.437629 u2=0.998635 u3=0 Iion=2.17897
DEBUG cell=0 t=0.00136684→0.00140188 step=0.000315424 V=-0.563738 u1=0.437654 u2=0.9986 u3=0 Iion=2.17899
PIMPLE: iteration 1
DICPCG:  Solving for Vm, Initial residual = 8.75325e-06, Final residual = 8.41346e-16, No Iterations 4
PIMPLE: iteration 2
DICPCG:  Solving for Vm, Initial residual = 8.52787e-16, Final residual = 8.52787e-16, No Iterations 0
ExecutionTime = 31.97 s  ClockTime = 33 s

Time = 0.00143693

DEBUG cell=0 t=0.00140188→0.00143693 step=3.50471e-05 V=-0.563748 u1=0.437654 u2=0.9986 u3=0 Iion=2.17899
DEBUG cell=0 t=0.00140188→0.00143693 step=0.000315424 V=-0.563748 u1=0.437679 u2=0.998565 u3=0 Iion=2.17901
PIMPLE: iteration 1
DICPCG:  Solving for Vm, Initial residual = 8.75295e-06, Final residual = 8.41316e-16, No Iterations 4
PIMPLE: iteration 2
DICPCG:  Solving for Vm, Initial residual = 8.52656e-16, Final residual = 8.52656e-16, No Iterations 0
ExecutionTime = 32.83 s  ClockTime = 34 s

Time = 0.00147198

DEBUG cell=0 t=0.00143693→0.00147198 step=3.50471e-05 V=-0.563758 u1=0.437679 u2=0.998565 u3=0 Iion=2.17901
DEBUG cell=0 t=0.00143693→0.00147198 step=0.000315424 V=-0.563758 u1=0.437704 u2=0.99853 u3=0 Iion=2.17903
PIMPLE: iteration 1
DICPCG:  Solving for Vm, Initial residual = 8.75264e-06, Final residual = 8.41287e-16, No Iterations 4
PIMPLE: iteration 2
DICPCG:  Solving for Vm, Initial residual = 8.5267e-16, Final residual = 8.5267e-16, No Iterations 0
ExecutionTime = 33.67 s  ClockTime = 35 s

Time = 0.00150703

DEBUG cell=0 t=0.00147198→0.00150703 step=3.50471e-05 V=-0.563768 u1=0.437704 u2=0.99853 u3=0 Iion=2.17903
DEBUG cell=0 t=0.00147198→0.00150703 step=0.000315424 V=-0.563768 u1=0.43773 u2=0.998495 u3=0 Iion=2.17905
PIMPLE: iteration 1
DICPCG:  Solving for Vm, Initial residual = 8.75234e-06, Final residual = 8.41257e-16, No Iterations 4
PIMPLE: iteration 2
DICPCG:  Solving for Vm, Initial residual = 8.52635e-16, Final residual = 8.52635e-16, No Iterations 0
ExecutionTime = 34.51 s  ClockTime = 36 s

Time = 0.00154207

DEBUG cell=0 t=0.00150703→0.00154207 step=3.50471e-05 V=-0.563778 u1=0.43773 u2=0.998495 u3=0 Iion=2.17905
DEBUG cell=0 t=0.00150703→0.00154207 step=0.000315424 V=-0.563778 u1=0.437755 u2=0.99846 u3=0 Iion=2.17907
PIMPLE: iteration 1
DICPCG:  Solving for Vm, Initial residual = 8.75203e-06, Final residual = 8.41228e-16, No Iterations 4
PIMPLE: iteration 2
DICPCG:  Solving for Vm, Initial residual = 8.52694e-16, Final residual = 8.52694e-16, No Iterations 0
ExecutionTime = 35.33 s  ClockTime = 36 s

Time = 0.00157712

DEBUG cell=0 t=0.00154207→0.00157712 step=3.50471e-05 V=-0.563788 u1=0.437755 u2=0.99846 u3=0 Iion=2.17907
DEBUG cell=0 t=0.00154207→0.00157712 step=0.000315424 V=-0.563788 u1=0.43778 u2=0.998425 u3=0 Iion=2.17909
PIMPLE: iteration 1
DICPCG:  Solving for Vm, Initial residual = 8.75172e-06, Final residual = 8.41198e-16, No Iterations 4
PIMPLE: iteration 2
DICPCG:  Solving for Vm, Initial residual = 8.52617e-16, Final residual = 8.52617e-16, No Iterations 0
ExecutionTime = 36.16 s  ClockTime = 37 s

Time = 0.00161217

DEBUG cell=0 t=0.00157712→0.00161217 step=3.50471e-05 V=-0.563797 u1=0.43778 u2=0.998425 u3=0 Iion=2.17909
DEBUG cell=0 t=0.00157712→0.00161217 step=0.000315424 V=-0.563797 u1=0.437805 u2=0.99839 u3=0 Iion=2.1791
PIMPLE: iteration 1
DICPCG:  Solving for Vm, Initial residual = 8.75142e-06, Final residual = 8.41169e-16, No Iterations 4
PIMPLE: iteration 2
DICPCG:  Solving for Vm, Initial residual = 8.52548e-16, Final residual = 8.52548e-16, No Iterations 0
ExecutionTime = 37.01 s  ClockTime = 38 s

Time = 0.00164721

DEBUG cell=0 t=0.00161217→0.00164721 step=3.50471e-05 V=-0.563807 u1=0.437805 u2=0.99839 u3=0 Iion=2.1791
DEBUG cell=0 t=0.00161217→0.00164721 step=0.000315424 V=-0.563807 u1=0.43783 u2=0.998356 u3=0 Iion=2.17912
PIMPLE: iteration 1
DICPCG:  Solving for Vm, Initial residual = 8.75111e-06, Final residual = 8.4114e-16, No Iterations 4
PIMPLE: iteration 2
DICPCG:  Solving for Vm, Initial residual = 8.52522e-16, Final residual = 8.52522e-16, No Iterations 0
ExecutionTime = 37.86 s  ClockTime = 39 s

Time = 0.00168226

DEBUG cell=0 t=0.00164721→0.00168226 step=3.50471e-05 V=-0.563817 u1=0.43783 u2=0.998356 u3=0 Iion=2.17912
DEBUG cell=0 t=0.00164721→0.00168226 step=0.000315424 V=-0.563817 u1=0.437855 u2=0.998321 u3=0 Iion=2.17914
PIMPLE: iteration 1
DICPCG:  Solving for Vm, Initial residual = 8.75081e-06, Final residual = 8.4111e-16, No Iterations 4
PIMPLE: iteration 2
DICPCG:  Solving for Vm, Initial residual = 8.52561e-16, Final residual = 8.52561e-16, No Iterations 0
ExecutionTime = 38.69 s  ClockTime = 40 s

Time = 0.00171731

DEBUG cell=0 t=0.00168226→0.00171731 step=3.50471e-05 V=-0.563827 u1=0.437855 u2=0.998321 u3=0 Iion=2.17914
DEBUG cell=0 t=0.00168226→0.00171731 step=0.000315424 V=-0.563827 u1=0.437881 u2=0.998286 u3=0 Iion=2.17916
PIMPLE: iteration 1
DICPCG:  Solving for Vm, Initial residual = 8.7505e-06, Final residual = 8.41081e-16, No Iterations 4
PIMPLE: iteration 2
DICPCG:  Solving for Vm, Initial residual = 8.52458e-16, Final residual = 8.52458e-16, No Iterations 0
ExecutionTime = 39.56 s  ClockTime = 41 s

Time = 0.00175235

DEBUG cell=0 t=0.00171731→0.00175235 step=3.50471e-05 V=-0.563837 u1=0.437881 u2=0.998286 u3=0 Iion=2.17916
DEBUG cell=0 t=0.00171731→0.00175235 step=0.000315424 V=-0.563837 u1=0.437906 u2=0.998251 u3=0 Iion=2.17918
PIMPLE: iteration 1
DICPCG:  Solving for Vm, Initial residual = 8.75019e-06, Final residual = 8.41051e-16, No Iterations 4
PIMPLE: iteration 2
DICPCG:  Solving for Vm, Initial residual = 8.52433e-16, Final residual = 8.52433e-16, No Iterations 0
ExecutionTime = 40.39 s  ClockTime = 41 s

Time = 0.0017874

DEBUG cell=0 t=0.00175235→0.0017874 step=3.50471e-05 V=-0.563847 u1=0.437906 u2=0.998251 u3=0 Iion=2.17918
DEBUG cell=0 t=0.00175235→0.0017874 step=0.000315424 V=-0.563847 u1=0.437931 u2=0.998216 u3=0 Iion=2.1792
PIMPLE: iteration 1
DICPCG:  Solving for Vm, Initial residual = 8.74989e-06, Final residual = 8.41022e-16, No Iterations 4
PIMPLE: iteration 2
DICPCG:  Solving for Vm, Initial residual = 8.52409e-16, Final residual = 8.52409e-16, No Iterations 0
ExecutionTime = 41.26 s  ClockTime = 42 s

Time = 0.00182245

DEBUG cell=0 t=0.0017874→0.00182245 step=3.50471e-05 V=-0.563857 u1=0.437931 u2=0.998216 u3=0 Iion=2.1792
DEBUG cell=0 t=0.0017874→0.00182245 step=0.000315424 V=-0.563857 u1=0.437956 u2=0.998181 u3=0 Iion=2.17921
PIMPLE: iteration 1
DICPCG:  Solving for Vm, Initial residual = 8.74958e-06, Final residual = 8.40993e-16, No Iterations 4
PIMPLE: iteration 2
DICPCG:  Solving for Vm, Initial residual = 8.52512e-16, Final residual = 8.52512e-16, No Iterations 0
ExecutionTime = 42.1 s  ClockTime = 43 s

Time = 0.0018575

DEBUG cell=0 t=0.00182245→0.0018575 step=3.50471e-05 V=-0.563866 u1=0.437956 u2=0.998181 u3=0 Iion=2.17921
DEBUG cell=0 t=0.00182245→0.0018575 step=0.000315424 V=-0.563866 u1=0.437981 u2=0.998146 u3=0 Iion=2.17923
PIMPLE: iteration 1
DICPCG:  Solving for Vm, Initial residual = 8.74928e-06, Final residual = 8.40963e-16, No Iterations 4
PIMPLE: iteration 2
DICPCG:  Solving for Vm, Initial residual = 8.52317e-16, Final residual = 8.52317e-16, No Iterations 0
ExecutionTime = 42.95 s  ClockTime = 44 s

Time = 0.00189254

DEBUG cell=0 t=0.0018575→0.00189254 step=3.50471e-05 V=-0.563876 u1=0.437981 u2=0.998146 u3=0 Iion=2.17923
DEBUG cell=0 t=0.0018575→0.00189254 step=0.000315424 V=-0.563876 u1=0.438007 u2=0.998111 u3=0 Iion=2.17925
PIMPLE: iteration 1
DICPCG:  Solving for Vm, Initial residual = 8.74897e-06, Final residual = 8.40934e-16, No Iterations 4
PIMPLE: iteration 2
DICPCG:  Solving for Vm, Initial residual = 8.52377e-16, Final residual = 8.52377e-16, No Iterations 0
ExecutionTime = 43.77 s  ClockTime = 45 s

Time = 0.00192759

DEBUG cell=0 t=0.00189254→0.00192759 step=3.50471e-05 V=-0.563886 u1=0.438007 u2=0.998111 u3=0 Iion=2.17925
DEBUG cell=0 t=0.00189254→0.00192759 step=0.000315424 V=-0.563886 u1=0.438032 u2=0.998076 u3=0 Iion=2.17927
PIMPLE: iteration 1
DICPCG:  Solving for Vm, Initial residual = 8.74866e-06, Final residual = 8.40904e-16, No Iterations 4
PIMPLE: iteration 2
DICPCG:  Solving for Vm, Initial residual = 8.52306e-16, Final residual = 8.52306e-16, No Iterations 0
ExecutionTime = 44.6 s  ClockTime = 46 s

Time = 0.00196264

DEBUG cell=0 t=0.00192759→0.00196264 step=3.50471e-05 V=-0.563896 u1=0.438032 u2=0.998076 u3=0 Iion=2.17927
DEBUG cell=0 t=0.00192759→0.00196264 step=0.000315424 V=-0.563896 u1=0.438057 u2=0.998041 u3=0 Iion=2.17929
PIMPLE: iteration 1
DICPCG:  Solving for Vm, Initial residual = 8.74836e-06, Final residual = 8.40875e-16, No Iterations 4
PIMPLE: iteration 2
DICPCG:  Solving for Vm, Initial residual = 8.52299e-16, Final residual = 8.52299e-16, No Iterations 0
ExecutionTime = 45.45 s  ClockTime = 47 s

Time = 0.00199768

DEBUG cell=0 t=0.00196264→0.00199768 step=3.50471e-05 V=-0.563906 u1=0.438057 u2=0.998041 u3=0 Iion=2.17929
DEBUG cell=0 t=0.00196264→0.00199768 step=0.000315424 V=-0.563906 u1=0.438082 u2=0.998006 u3=0 Iion=2.17931
PIMPLE: iteration 1
DICPCG:  Solving for Vm, Initial residual = 8.74805e-06, Final residual = 8.40846e-16, No Iterations 4
PIMPLE: iteration 2
DICPCG:  Solving for Vm, Initial residual = 8.52263e-16, Final residual = 8.52263e-16, No Iterations 0
ExecutionTime = 46.33 s  ClockTime = 47 s

Time = 0.00203273

DEBUG cell=0 t=0.00199768→0.00203273 step=3.50471e-05 V=-0.563916 u1=0.438082 u2=0.998006 u3=0 Iion=2.17931
DEBUG cell=0 t=0.00199768→0.00203273 step=0.000315424 V=-0.563916 u1=0.438107 u2=0.997971 u3=0 Iion=2.17933
PIMPLE: iteration 1
DICPCG:  Solving for Vm, Initial residual = 8.74775e-06, Final residual = 8.40816e-16, No Iterations 4
PIMPLE: iteration 2
DICPCG:  Solving for Vm, Initial residual = 8.52295e-16, Final residual = 8.52295e-16, No Iterations 0
ExecutionTime = 47.18 s  ClockTime = 48 s

Time = 0.00206778

DEBUG cell=0 t=0.00203273→0.00206778 step=3.50471e-05 V=-0.563926 u1=0.438107 u2=0.997971 u3=0 Iion=2.17933
DEBUG cell=0 t=0.00203273→0.00206778 step=0.000315424 V=-0.563926 u1=0.438132 u2=0.997936 u3=0 Iion=2.17934
PIMPLE: iteration 1
DICPCG:  Solving for Vm, Initial residual = 8.74744e-06, Final residual = 8.40787e-16, No Iterations 4
PIMPLE: iteration 2
DICPCG:  Solving for Vm, Initial residual = 8.52109e-16, Final residual = 8.52109e-16, No Iterations 0
ExecutionTime = 48.07 s  ClockTime = 49 s

Time = 0.00210283

DEBUG cell=0 t=0.00206778→0.00210283 step=3.50471e-05 V=-0.563936 u1=0.438132 u2=0.997936 u3=0 Iion=2.17934
DEBUG cell=0 t=0.00206778→0.00210283 step=0.000315424 V=-0.563936 u1=0.438158 u2=0.997902 u3=0 Iion=2.17936
PIMPLE: iteration 1
DICPCG:  Solving for Vm, Initial residual = 8.74713e-06, Final residual = 8.40757e-16, No Iterations 4
PIMPLE: iteration 2
DICPCG:  Solving for Vm, Initial residual = 8.52193e-16, Final residual = 8.52193e-16, No Iterations 0
ExecutionTime = 48.9 s  ClockTime = 50 s

Time = 0.00213787

DEBUG cell=0 t=0.00210283→0.00213787 step=3.50471e-05 V=-0.563945 u1=0.438158 u2=0.997902 u3=0 Iion=2.17936
DEBUG cell=0 t=0.00210283→0.00213787 step=0.000315424 V=-0.563945 u1=0.438183 u2=0.997867 u3=0 Iion=2.17938
PIMPLE: iteration 1
DICPCG:  Solving for Vm, Initial residual = 8.74683e-06, Final residual = 8.40728e-16, No Iterations 4
PIMPLE: iteration 2
DICPCG:  Solving for Vm, Initial residual = 8.52144e-16, Final residual = 8.52144e-16, No Iterations 0
ExecutionTime = 49.74 s  ClockTime = 51 s

Time = 0.00217292

DEBUG cell=0 t=0.00213787→0.00217292 step=3.50471e-05 V=-0.563955 u1=0.438183 u2=0.997867 u3=0 Iion=2.17938
DEBUG cell=0 t=0.00213787→0.00217292 step=0.000315424 V=-0.563955 u1=0.438208 u2=0.997832 u3=0 Iion=2.1794
PIMPLE: iteration 1
DICPCG:  Solving for Vm, Initial residual = 8.74652e-06, Final residual = 8.40699e-16, No Iterations 4
PIMPLE: iteration 2
DICPCG:  Solving for Vm, Initial residual = 8.52207e-16, Final residual = 8.52207e-16, No Iterations 0
ExecutionTime = 50.6 s  ClockTime = 52 s

Time = 0.00220797

DEBUG cell=0 t=0.00217292→0.00220797 step=3.50471e-05 V=-0.563965 u1=0.438208 u2=0.997832 u3=0 Iion=2.1794
DEBUG cell=0 t=0.00217292→0.00220797 step=0.000315424 V=-0.563965 u1=0.438233 u2=0.997797 u3=0 Iion=2.17942
PIMPLE: iteration 1
DICPCG:  Solving for Vm, Initial residual = 8.74622e-06, Final residual = 8.40669e-16, No Iterations 4
PIMPLE: iteration 2
DICPCG:  Solving for Vm, Initial residual = 8.52081e-16, Final residual = 8.52081e-16, No Iterations 0
ExecutionTime = 51.46 s  ClockTime = 53 s

Time = 0.00224301

DEBUG cell=0 t=0.00220797→0.00224301 step=3.50471e-05 V=-0.563975 u1=0.438233 u2=0.997797 u3=0 Iion=2.17942
DEBUG cell=0 t=0.00220797→0.00224301 step=0.000315424 V=-0.563975 u1=0.438258 u2=0.997762 u3=0 Iion=2.17944
PIMPLE: iteration 1
DICPCG:  Solving for Vm, Initial residual = 8.74591e-06, Final residual = 8.4064e-16, No Iterations 4
PIMPLE: iteration 2
DICPCG:  Solving for Vm, Initial residual = 8.52074e-16, Final residual = 8.52074e-16, No Iterations 0
ExecutionTime = 52.31 s  ClockTime = 53 s

Time = 0.00227806

DEBUG cell=0 t=0.00224301→0.00227806 step=3.50471e-05 V=-0.563985 u1=0.438258 u2=0.997762 u3=0 Iion=2.17944
DEBUG cell=0 t=0.00224301→0.00227806 step=0.000315424 V=-0.563985 u1=0.438284 u2=0.997727 u3=0 Iion=2.17945
PIMPLE: iteration 1
DICPCG:  Solving for Vm, Initial residual = 8.74561e-06, Final residual = 8.4061e-16, No Iterations 4
PIMPLE: iteration 2
DICPCG:  Solving for Vm, Initial residual = 8.51878e-16, Final residual = 8.51878e-16, No Iterations 0
ExecutionTime = 53.12 s  ClockTime = 54 s

Time = 0.00231311

DEBUG cell=0 t=0.00227806→0.00231311 step=3.50471e-05 V=-0.563995 u1=0.438284 u2=0.997727 u3=0 Iion=2.17945
DEBUG cell=0 t=0.00227806→0.00231311 step=0.000315424 V=-0.563995 u1=0.438309 u2=0.997692 u3=0 Iion=2.17947
PIMPLE: iteration 1
DICPCG:  Solving for Vm, Initial residual = 8.7453e-06, Final residual = 8.40581e-16, No Iterations 4
PIMPLE: iteration 2
DICPCG:  Solving for Vm, Initial residual = 8.51996e-16, Final residual = 8.51996e-16, No Iterations 0
ExecutionTime = 53.95 s  ClockTime = 55 s

Time = 0.00234816

DEBUG cell=0 t=0.00231311→0.00234816 step=3.50471e-05 V=-0.564005 u1=0.438309 u2=0.997692 u3=0 Iion=2.17947
DEBUG cell=0 t=0.00231311→0.00234816 step=0.000315424 V=-0.564005 u1=0.438334 u2=0.997657 u3=0 Iion=2.17949
PIMPLE: iteration 1
DICPCG:  Solving for Vm, Initial residual = 8.74499e-06, Final residual = 8.40552e-16, No Iterations 4
PIMPLE: iteration 2
DICPCG:  Solving for Vm, Initial residual = 8.51859e-16, Final residual = 8.51859e-16, No Iterations 0
ExecutionTime = 54.78 s  ClockTime = 56 s

Time = 0.0023832

DEBUG cell=0 t=0.00234816→0.0023832 step=3.50471e-05 V=-0.564014 u1=0.438334 u2=0.997657 u3=0 Iion=2.17949
DEBUG cell=0 t=0.00234816→0.0023832 step=0.000315424 V=-0.564014 u1=0.438359 u2=0.997622 u3=0 Iion=2.17951
PIMPLE: iteration 1
DICPCG:  Solving for Vm, Initial residual = 8.74469e-06, Final residual = 8.40522e-16, No Iterations 4
PIMPLE: iteration 2
DICPCG:  Solving for Vm, Initial residual = 8.51968e-16, Final residual = 8.51968e-16, No Iterations 0
ExecutionTime = 55.62 s  ClockTime = 57 s

Time = 0.00241825

DEBUG cell=0 t=0.0023832→0.00241825 step=3.50471e-05 V=-0.564024 u1=0.438359 u2=0.997622 u3=0 Iion=2.17951
DEBUG cell=0 t=0.0023832→0.00241825 step=0.000315424 V=-0.564024 u1=0.438384 u2=0.997588 u3=0 Iion=2.17953
PIMPLE: iteration 1
DICPCG:  Solving for Vm, Initial residual = 8.74438e-06, Final residual = 8.40493e-16, No Iterations 4
PIMPLE: iteration 2
DICPCG:  Solving for Vm, Initial residual = 8.5192e-16, Final residual = 8.5192e-16, No Iterations 0
ExecutionTime = 56.47 s  ClockTime = 58 s

Time = 0.0024533

DEBUG cell=0 t=0.00241825→0.0024533 step=3.50471e-05 V=-0.564034 u1=0.438384 u2=0.997588 u3=0 Iion=2.17953
DEBUG cell=0 t=0.00241825→0.0024533 step=0.000315424 V=-0.564034 u1=0.438409 u2=0.997553 u3=0 Iion=2.17955
PIMPLE: iteration 1
DICPCG:  Solving for Vm, Initial residual = 8.74408e-06, Final residual = 8.40464e-16, No Iterations 4
PIMPLE: iteration 2
DICPCG:  Solving for Vm, Initial residual = 8.5194e-16, Final residual = 8.5194e-16, No Iterations 0
ExecutionTime = 57.29 s  ClockTime = 58 s

Time = 0.00248834

DEBUG cell=0 t=0.0024533→0.00248834 step=3.50471e-05 V=-0.564044 u1=0.438409 u2=0.997553 u3=0 Iion=2.17955
DEBUG cell=0 t=0.0024533→0.00248834 step=0.000315424 V=-0.564044 u1=0.438435 u2=0.997518 u3=0 Iion=2.17956
PIMPLE: iteration 1
DICPCG:  Solving for Vm, Initial residual = 8.74377e-06, Final residual = 8.40434e-16, No Iterations 4
PIMPLE: iteration 2
DICPCG:  Solving for Vm, Initial residual = 8.51879e-16, Final residual = 8.51879e-16, No Iterations 0
ExecutionTime = 58.11 s  ClockTime = 59 s

Time = 0.00252339

DEBUG cell=0 t=0.00248834→0.00252339 step=3.50471e-05 V=-0.564054 u1=0.438435 u2=0.997518 u3=0 Iion=2.17956
DEBUG cell=0 t=0.00248834→0.00252339 step=0.000315424 V=-0.564054 u1=0.43846 u2=0.997483 u3=0 Iion=2.17958
PIMPLE: iteration 1
DICPCG:  Solving for Vm, Initial residual = 8.74347e-06, Final residual = 8.40405e-16, No Iterations 4
PIMPLE: iteration 2
DICPCG:  Solving for Vm, Initial residual = 8.51789e-16, Final residual = 8.51789e-16, No Iterations 0
ExecutionTime = 58.94 s  ClockTime = 60 s

Time = 0.00255844

DEBUG cell=0 t=0.00252339→0.00255844 step=3.50471e-05 V=-0.564064 u1=0.43846 u2=0.997483 u3=0 Iion=2.17958
DEBUG cell=0 t=0.00252339→0.00255844 step=0.000315424 V=-0.564064 u1=0.438485 u2=0.997448 u3=0 Iion=2.1796
PIMPLE: iteration 1
DICPCG:  Solving for Vm, Initial residual = 8.74316e-06, Final residual = 8.40375e-16, No Iterations 4
PIMPLE: iteration 2
DICPCG:  Solving for Vm, Initial residual = 8.51755e-16, Final residual = 8.51755e-16, No Iterations 0
ExecutionTime = 59.81 s  ClockTime = 61 s

Time = 0.00259349

DEBUG cell=0 t=0.00255844→0.00259349 step=3.50471e-05 V=-0.564074 u1=0.438485 u2=0.997448 u3=0 Iion=2.1796
DEBUG cell=0 t=0.00255844→0.00259349 step=0.000315424 V=-0.564074 u1=0.43851 u2=0.997413 u3=0 Iion=2.17962
PIMPLE: iteration 1
DICPCG:  Solving for Vm, Initial residual = 8.74286e-06, Final residual = 8.40346e-16, No Iterations 4
PIMPLE: iteration 2
DICPCG:  Solving for Vm, Initial residual = 8.51827e-16, Final residual = 8.51827e-16, No Iterations 0
ExecutionTime = 60.67 s  ClockTime = 62 s

Time = 0.00262853

DEBUG cell=0 t=0.00259349→0.00262853 step=3.50471e-05 V=-0.564084 u1=0.43851 u2=0.997413 u3=0 Iion=2.17962
DEBUG cell=0 t=0.00259349→0.00262853 step=0.000315424 V=-0.564084 u1=0.438535 u2=0.997378 u3=0 Iion=2.17964
PIMPLE: iteration 1
DICPCG:  Solving for Vm, Initial residual = 8.74255e-06, Final residual = 8.40317e-16, No Iterations 4
PIMPLE: iteration 2
DICPCG:  Solving for Vm, Initial residual = 8.5176e-16, Final residual = 8.5176e-16, No Iterations 0
ExecutionTime = 61.52 s  ClockTime = 63 s

Time = 0.00266358

DEBUG cell=0 t=0.00262853→0.00266358 step=3.50471e-05 V=-0.564093 u1=0.438535 u2=0.997378 u3=0 Iion=2.17964
DEBUG cell=0 t=0.00262853→0.00266358 step=0.000315424 V=-0.564093 u1=0.438561 u2=0.997344 u3=0 Iion=2.17966
PIMPLE: iteration 1
DICPCG:  Solving for Vm, Initial residual = 8.74224e-06, Final residual = 8.40287e-16, No Iterations 4
PIMPLE: iteration 2
DICPCG:  Solving for Vm, Initial residual = 8.5172e-16, Final residual = 8.5172e-16, No Iterations 0
ExecutionTime = 62.4 s  ClockTime = 64 s

Time = 0.00269863

DEBUG cell=0 t=0.00266358→0.00269863 step=3.50471e-05 V=-0.564103 u1=0.438561 u2=0.997344 u3=0 Iion=2.17966
DEBUG cell=0 t=0.00266358→0.00269863 step=0.000315424 V=-0.564103 u1=0.438586 u2=0.997309 u3=0 Iion=2.17968
PIMPLE: iteration 1
DICPCG:  Solving for Vm, Initial residual = 8.74194e-06, Final residual = 8.40258e-16, No Iterations 4
PIMPLE: iteration 2
DICPCG:  Solving for Vm, Initial residual = 8.5174e-16, Final residual = 8.5174e-16, No Iterations 0
ExecutionTime = 63.22 s  ClockTime = 64 s

Time = 0.00273367

DEBUG cell=0 t=0.00269863→0.00273367 step=3.50471e-05 V=-0.564113 u1=0.438586 u2=0.997309 u3=0 Iion=2.17968
DEBUG cell=0 t=0.00269863→0.00273367 step=0.000315424 V=-0.564113 u1=0.438611 u2=0.997274 u3=0 Iion=2.17969
PIMPLE: iteration 1
DICPCG:  Solving for Vm, Initial residual = 8.74163e-06, Final residual = 8.40229e-16, No Iterations 4
PIMPLE: iteration 2
DICPCG:  Solving for Vm, Initial residual = 8.51672e-16, Final residual = 8.51672e-16, No Iterations 0
ExecutionTime = 64.07 s  ClockTime = 65 s

Time = 0.00276872

DEBUG cell=0 t=0.00273367→0.00276872 step=3.50471e-05 V=-0.564123 u1=0.438611 u2=0.997274 u3=0 Iion=2.17969
DEBUG cell=0 t=0.00273367→0.00276872 step=0.000315424 V=-0.564123 u1=0.438636 u2=0.997239 u3=0 Iion=2.17971
PIMPLE: iteration 1
DICPCG:  Solving for Vm, Initial residual = 8.74133e-06, Final residual = 8.40199e-16, No Iterations 4
PIMPLE: iteration 2
DICPCG:  Solving for Vm, Initial residual = 8.51588e-16, Final residual = 8.51588e-16, No Iterations 0
ExecutionTime = 64.92 s  ClockTime = 66 s

Time = 0.00280377

DEBUG cell=0 t=0.00276872→0.00280377 step=3.50471e-05 V=-0.564133 u1=0.438636 u2=0.997239 u3=0 Iion=2.17971
DEBUG cell=0 t=0.00276872→0.00280377 step=0.000315424 V=-0.564133 u1=0.438661 u2=0.997204 u3=0 Iion=2.17973
PIMPLE: iteration 1
DICPCG:  Solving for Vm, Initial residual = 8.74102e-06, Final residual = 8.4017e-16, No Iterations 4
PIMPLE: iteration 2
DICPCG:  Solving for Vm, Initial residual = 8.51611e-16, Final residual = 8.51611e-16, No Iterations 0
ExecutionTime = 65.82 s  ClockTime = 67 s

Time = 0.00283882

DEBUG cell=0 t=0.00280377→0.00283882 step=3.50471e-05 V=-0.564143 u1=0.438661 u2=0.997204 u3=0 Iion=2.17973
DEBUG cell=0 t=0.00280377→0.00283882 step=0.000315424 V=-0.564143 u1=0.438687 u2=0.997169 u3=0 Iion=2.17975
PIMPLE: iteration 1
DICPCG:  Solving for Vm, Initial residual = 8.74072e-06, Final residual = 8.40141e-16, No Iterations 4
PIMPLE: iteration 2
DICPCG:  Solving for Vm, Initial residual = 8.51562e-16, Final residual = 8.51562e-16, No Iterations 0
ExecutionTime = 66.63 s  ClockTime = 68 s

Time = 0.00287386

DEBUG cell=0 t=0.00283882→0.00287386 step=3.50471e-05 V=-0.564153 u1=0.438687 u2=0.997169 u3=0 Iion=2.17975
DEBUG cell=0 t=0.00283882→0.00287386 step=0.000315424 V=-0.564153 u1=0.438712 u2=0.997134 u3=0 Iion=2.17977
PIMPLE: iteration 1
DICPCG:  Solving for Vm, Initial residual = 8.74041e-06, Final residual = 8.40111e-16, No Iterations 4
PIMPLE: iteration 2
DICPCG:  Solving for Vm, Initial residual = 8.51517e-16, Final residual = 8.51517e-16, No Iterations 0
ExecutionTime = 67.45 s  ClockTime = 69 s

Time = 0.00290891

DEBUG cell=0 t=0.00287386→0.00290891 step=3.50471e-05 V=-0.564162 u1=0.438712 u2=0.997134 u3=0 Iion=2.17977
DEBUG cell=0 t=0.00287386→0.00290891 step=0.000315424 V=-0.564162 u1=0.438737 u2=0.9971 u3=0 Iion=2.17979
PIMPLE: iteration 1
DICPCG:  Solving for Vm, Initial residual = 8.74011e-06, Final residual = 8.40082e-16, No Iterations 4
PIMPLE: iteration 2
DICPCG:  Solving for Vm, Initial residual = 8.51487e-16, Final residual = 8.51487e-16, No Iterations 0
ExecutionTime = 68.28 s  ClockTime = 69 s

Time = 0.00294396

DEBUG cell=0 t=0.00290891→0.00294396 step=3.50471e-05 V=-0.564172 u1=0.438737 u2=0.9971 u3=0 Iion=2.17979
DEBUG cell=0 t=0.00290891→0.00294396 step=0.000315424 V=-0.564172 u1=0.438762 u2=0.997065 u3=0 Iion=2.1798
PIMPLE: iteration 1
DICPCG:  Solving for Vm, Initial residual = 8.7398e-06, Final residual = 8.40053e-16, No Iterations 4
PIMPLE: iteration 2
DICPCG:  Solving for Vm, Initial residual = 8.51512e-16, Final residual = 8.51512e-16, No Iterations 0
ExecutionTime = 69.17 s  ClockTime = 70 s

Time = 0.002979

DEBUG cell=0 t=0.00294396→0.002979 step=3.50471e-05 V=-0.564182 u1=0.438762 u2=0.997065 u3=0 Iion=2.1798
DEBUG cell=0 t=0.00294396→0.002979 step=0.000315424 V=-0.564182 u1=0.438787 u2=0.99703 u3=0 Iion=2.17982
PIMPLE: iteration 1
DICPCG:  Solving for Vm, Initial residual = 8.7395e-06, Final residual = 8.40023e-16, No Iterations 4
PIMPLE: iteration 2
DICPCG:  Solving for Vm, Initial residual = 8.51494e-16, Final residual = 8.51494e-16, No Iterations 0
ExecutionTime = 70.03 s  ClockTime = 71 s

Time = 0.00301405

DEBUG cell=0 t=0.002979→0.00301405 step=3.50471e-05 V=-0.564192 u1=0.438787 u2=0.99703 u3=0 Iion=2.17982
DEBUG cell=0 t=0.002979→0.00301405 step=0.000315424 V=-0.564192 u1=0.438813 u2=0.996995 u3=0 Iion=2.17984
PIMPLE: iteration 1
DICPCG:  Solving for Vm, Initial residual = 8.73919e-06, Final residual = 8.39994e-16, No Iterations 4
PIMPLE: iteration 2
DICPCG:  Solving for Vm, Initial residual = 8.51385e-16, Final residual = 8.51385e-16, No Iterations 0
ExecutionTime = 70.93 s  ClockTime = 72 s

Time = 0.0030491

DEBUG cell=0 t=0.00301405→0.0030491 step=3.50471e-05 V=-0.564202 u1=0.438813 u2=0.996995 u3=0 Iion=2.17984
DEBUG cell=0 t=0.00301405→0.0030491 step=0.000315424 V=-0.564202 u1=0.438838 u2=0.99696 u3=0 Iion=2.17986
PIMPLE: iteration 1
DICPCG:  Solving for Vm, Initial residual = 8.73889e-06, Final residual = 8.39965e-16, No Iterations 4
PIMPLE: iteration 2
DICPCG:  Solving for Vm, Initial residual = 8.5143e-16, Final residual = 8.5143e-16, No Iterations 0
ExecutionTime = 71.8 s  ClockTime = 73 s

Time = 0.00308414

DEBUG cell=0 t=0.0030491→0.00308414 step=3.50471e-05 V=-0.564212 u1=0.438838 u2=0.99696 u3=0 Iion=2.17986
DEBUG cell=0 t=0.0030491→0.00308414 step=0.000315424 V=-0.564212 u1=0.438863 u2=0.996925 u3=0 Iion=2.17988
PIMPLE: iteration 1
DICPCG:  Solving for Vm, Initial residual = 8.73858e-06, Final residual = 8.39935e-16, No Iterations 4
PIMPLE: iteration 2
DICPCG:  Solving for Vm, Initial residual = 8.51387e-16, Final residual = 8.51387e-16, No Iterations 0
ExecutionTime = 72.69 s  ClockTime = 74 s

Time = 0.00311919

DEBUG cell=0 t=0.00308414→0.00311919 step=3.50471e-05 V=-0.564222 u1=0.438863 u2=0.996925 u3=0 Iion=2.17988
DEBUG cell=0 t=0.00308414→0.00311919 step=0.000315424 V=-0.564222 u1=0.438888 u2=0.996891 u3=0 Iion=2.1799
PIMPLE: iteration 1
DICPCG:  Solving for Vm, Initial residual = 8.73828e-06, Final residual = 8.39906e-16, No Iterations 4
PIMPLE: iteration 2
DICPCG:  Solving for Vm, Initial residual = 8.51309e-16, Final residual = 8.51309e-16, No Iterations 0
ExecutionTime = 73.61 s  ClockTime = 75 s

Time = 0.00315424

DEBUG cell=0 t=0.00311919→0.00315424 step=3.50471e-05 V=-0.564231 u1=0.438888 u2=0.996891 u3=0 Iion=2.1799
DEBUG cell=0 t=0.00311919→0.00315424 step=0.000315424 V=-0.564231 u1=0.438913 u2=0.996856 u3=0 Iion=2.17992
PIMPLE: iteration 1
DICPCG:  Solving for Vm, Initial residual = 8.73797e-06, Final residual = 8.39877e-16, No Iterations 4
PIMPLE: iteration 2
DICPCG:  Solving for Vm, Initial residual = 8.51231e-16, Final residual = 8.51231e-16, No Iterations 0
ExecutionTime = 74.59 s  ClockTime = 76 s

Time = 0.00318929

DEBUG cell=0 t=0.00315424→0.00318929 step=3.50471e-05 V=-0.564241 u1=0.438913 u2=0.996856 u3=0 Iion=2.17992
DEBUG cell=0 t=0.00315424→0.00318929 step=0.000315424 V=-0.564241 u1=0.438938 u2=0.996821 u3=0 Iion=2.17993
PIMPLE: iteration 1
DICPCG:  Solving for Vm, Initial residual = 8.73767e-06, Final residual = 8.39847e-16, No Iterations 4
PIMPLE: iteration 2
DICPCG:  Solving for Vm, Initial residual = 8.51294e-16, Final residual = 8.51294e-16, No Iterations 0
ExecutionTime = 75.54 s  ClockTime = 77 s

Time = 0.00322433

DEBUG cell=0 t=0.00318929→0.00322433 step=3.50471e-05 V=-0.564251 u1=0.438938 u2=0.996821 u3=0 Iion=2.17993
DEBUG cell=0 t=0.00318929→0.00322433 step=0.000315424 V=-0.564251 u1=0.438964 u2=0.996786 u3=0 Iion=2.17995
PIMPLE: iteration 1
DICPCG:  Solving for Vm, Initial residual = 8.73736e-06, Final residual = 8.39818e-16, No Iterations 4
PIMPLE: iteration 2
DICPCG:  Solving for Vm, Initial residual = 8.51186e-16, Final residual = 8.51186e-16, No Iterations 0
ExecutionTime = 76.37 s  ClockTime = 78 s

Time = 0.00325938

DEBUG cell=0 t=0.00322433→0.00325938 step=3.50471e-05 V=-0.564261 u1=0.438964 u2=0.996786 u3=0 Iion=2.17995
DEBUG cell=0 t=0.00322433→0.00325938 step=0.000315424 V=-0.564261 u1=0.438989 u2=0.996751 u3=0 Iion=2.17997
PIMPLE: iteration 1
DICPCG:  Solving for Vm, Initial residual = 8.73706e-06, Final residual = 8.39789e-16, No Iterations 4
PIMPLE: iteration 2
DICPCG:  Solving for Vm, Initial residual = 8.5125e-16, Final residual = 8.5125e-16, No Iterations 0
ExecutionTime = 77.18 s  ClockTime = 78 s

Time = 0.00329443

DEBUG cell=0 t=0.00325938→0.00329443 step=3.50471e-05 V=-0.564271 u1=0.438989 u2=0.996751 u3=0 Iion=2.17997
DEBUG cell=0 t=0.00325938→0.00329443 step=0.000315424 V=-0.564271 u1=0.439014 u2=0.996716 u3=0 Iion=2.17999
PIMPLE: iteration 1
DICPCG:  Solving for Vm, Initial residual = 8.73675e-06, Final residual = 8.39759e-16, No Iterations 4
PIMPLE: iteration 2
DICPCG:  Solving for Vm, Initial residual = 8.51123e-16, Final residual = 8.51123e-16, No Iterations 0
ExecutionTime = 78.05 s  ClockTime = 79 s

Time = 0.00332947

DEBUG cell=0 t=0.00329443→0.00332947 step=3.50471e-05 V=-0.564281 u1=0.439014 u2=0.996716 u3=0 Iion=2.17999
DEBUG cell=0 t=0.00329443→0.00332947 step=0.000315424 V=-0.564281 u1=0.439039 u2=0.996682 u3=0 Iion=2.18001
PIMPLE: iteration 1
DICPCG:  Solving for Vm, Initial residual = 8.73645e-06, Final residual = 8.3973e-16, No Iterations 4
PIMPLE: iteration 2
DICPCG:  Solving for Vm, Initial residual = 8.51166e-16, Final residual = 8.51166e-16, No Iterations 0
ExecutionTime = 78.93 s  ClockTime = 80 s

Time = 0.00336452

DEBUG cell=0 t=0.00332947→0.00336452 step=3.50471e-05 V=-0.564291 u1=0.439039 u2=0.996682 u3=0 Iion=2.18001
DEBUG cell=0 t=0.00332947→0.00336452 step=0.000315424 V=-0.564291 u1=0.439064 u2=0.996647 u3=0 Iion=2.18003
PIMPLE: iteration 1
DICPCG:  Solving for Vm, Initial residual = 8.73614e-06, Final residual = 8.39701e-16, No Iterations 4
PIMPLE: iteration 2
DICPCG:  Solving for Vm, Initial residual = 8.51026e-16, Final residual = 8.51026e-16, No Iterations 0
ExecutionTime = 79.78 s  ClockTime = 81 s

Time = 0.00339957

DEBUG cell=0 t=0.00336452→0.00339957 step=3.50471e-05 V=-0.5643 u1=0.439064 u2=0.996647 u3=0 Iion=2.18003
DEBUG cell=0 t=0.00336452→0.00339957 step=0.000315424 V=-0.5643 u1=0.43909 u2=0.996612 u3=0 Iion=2.18004
PIMPLE: iteration 1
DICPCG:  Solving for Vm, Initial residual = 8.73584e-06, Final residual = 8.39671e-16, No Iterations 4
PIMPLE: iteration 2
DICPCG:  Solving for Vm, Initial residual = 8.511e-16, Final residual = 8.511e-16, No Iterations 0
ExecutionTime = 80.66 s  ClockTime = 82 s

Time = 0.00343462

DEBUG cell=0 t=0.00339957→0.00343462 step=3.50471e-05 V=-0.56431 u1=0.43909 u2=0.996612 u3=0 Iion=2.18004
DEBUG cell=0 t=0.00339957→0.00343462 step=0.000315424 V=-0.56431 u1=0.439115 u2=0.996577 u3=0 Iion=2.18006
PIMPLE: iteration 1
DICPCG:  Solving for Vm, Initial residual = 8.73553e-06, Final residual = 8.39642e-16, No Iterations 4
PIMPLE: iteration 2
DICPCG:  Solving for Vm, Initial residual = 8.5096e-16, Final residual = 8.5096e-16, No Iterations 0
ExecutionTime = 81.55 s  ClockTime = 83 s

Time = 0.00346966

DEBUG cell=0 t=0.00343462→0.00346966 step=3.50471e-05 V=-0.56432 u1=0.439115 u2=0.996577 u3=0 Iion=2.18006
DEBUG cell=0 t=0.00343462→0.00346966 step=0.000315424 V=-0.56432 u1=0.43914 u2=0.996542 u3=0 Iion=2.18008
PIMPLE: iteration 1
DICPCG:  Solving for Vm, Initial residual = 8.73523e-06, Final residual = 8.39613e-16, No Iterations 4
PIMPLE: iteration 2
DICPCG:  Solving for Vm, Initial residual = 8.50952e-16, Final residual = 8.50952e-16, No Iterations 0
ExecutionTime = 82.42 s  ClockTime = 84 s

Time = 0.00350471

DEBUG cell=0 t=0.00346966→0.00350471 step=3.50471e-05 V=-0.56433 u1=0.43914 u2=0.996542 u3=0 Iion=2.18008
DEBUG cell=0 t=0.00346966→0.00350471 step=0.000315424 V=-0.56433 u1=0.439165 u2=0.996508 u3=0 Iion=2.1801
PIMPLE: iteration 1
DICPCG:  Solving for Vm, Initial residual = 8.73492e-06, Final residual = 8.39583e-16, No Iterations 4
PIMPLE: iteration 2
DICPCG:  Solving for Vm, Initial residual = 8.51135e-16, Final residual = 8.51135e-16, No Iterations 0
ExecutionTime = 83.29 s  ClockTime = 85 s

Time = 0.00353976

DEBUG cell=0 t=0.00350471→0.00353976 step=3.50471e-05 V=-0.56434 u1=0.439165 u2=0.996508 u3=0 Iion=2.1801
DEBUG cell=0 t=0.00350471→0.00353976 step=0.000315424 V=-0.56434 u1=0.43919 u2=0.996473 u3=0 Iion=2.18012
PIMPLE: iteration 1
DICPCG:  Solving for Vm, Initial residual = 8.73462e-06, Final residual = 8.39554e-16, No Iterations 4
PIMPLE: iteration 2
DICPCG:  Solving for Vm, Initial residual = 8.5104e-16, Final residual = 8.5104e-16, No Iterations 0
ExecutionTime = 84.16 s  ClockTime = 85 s

Time = 0.0035748

DEBUG cell=0 t=0.00353976→0.0035748 step=3.50471e-05 V=-0.56435 u1=0.43919 u2=0.996473 u3=0 Iion=2.18012
DEBUG cell=0 t=0.00353976→0.0035748 step=0.000315424 V=-0.56435 u1=0.439216 u2=0.996438 u3=0 Iion=2.18014
PIMPLE: iteration 1
DICPCG:  Solving for Vm, Initial residual = 8.73431e-06, Final residual = 8.39525e-16, No Iterations 4
PIMPLE: iteration 2
DICPCG:  Solving for Vm, Initial residual = 8.50967e-16, Final residual = 8.50967e-16, No Iterations 0
ExecutionTime = 85.01 s  ClockTime = 86 s

Time = 0.00360985

DEBUG cell=0 t=0.0035748→0.00360985 step=3.50471e-05 V=-0.56436 u1=0.439216 u2=0.996438 u3=0 Iion=2.18014
DEBUG cell=0 t=0.0035748→0.00360985 step=0.000315424 V=-0.56436 u1=0.439241 u2=0.996403 u3=0 Iion=2.18016
PIMPLE: iteration 1
DICPCG:  Solving for Vm, Initial residual = 8.73401e-06, Final residual = 8.39495e-16, No Iterations 4
PIMPLE: iteration 2
DICPCG:  Solving for Vm, Initial residual = 8.50964e-16, Final residual = 8.50964e-16, No Iterations 0
ExecutionTime = 85.89 s  ClockTime = 87 s

Time = 0.0036449

DEBUG cell=0 t=0.00360985→0.0036449 step=3.50471e-05 V=-0.564369 u1=0.439241 u2=0.996403 u3=0 Iion=2.18016
DEBUG cell=0 t=0.00360985→0.0036449 step=0.000315424 V=-0.564369 u1=0.439266 u2=0.996368 u3=0 Iion=2.18017
PIMPLE: iteration 1
DICPCG:  Solving for Vm, Initial residual = 8.7337e-06, Final residual = 8.39466e-16, No Iterations 4
PIMPLE: iteration 2
DICPCG:  Solving for Vm, Initial residual = 8.50957e-16, Final residual = 8.50957e-16, No Iterations 0
ExecutionTime = 86.77 s  ClockTime = 88 s

Time = 0.00367995

DEBUG cell=0 t=0.0036449→0.00367995 step=3.50471e-05 V=-0.564379 u1=0.439266 u2=0.996368 u3=0 Iion=2.18017
DEBUG cell=0 t=0.0036449→0.00367995 step=0.000315424 V=-0.564379 u1=0.439291 u2=0.996334 u3=0 Iion=2.18019
PIMPLE: iteration 1
DICPCG:  Solving for Vm, Initial residual = 8.7334e-06, Final residual = 8.39437e-16, No Iterations 4
PIMPLE: iteration 2
DICPCG:  Solving for Vm, Initial residual = 8.50887e-16, Final residual = 8.50887e-16, No Iterations 0
ExecutionTime = 87.63 s  ClockTime = 89 s

Time = 0.00371499

DEBUG cell=0 t=0.00367995→0.00371499 step=3.50471e-05 V=-0.564389 u1=0.439291 u2=0.996334 u3=0 Iion=2.18019
DEBUG cell=0 t=0.00367995→0.00371499 step=0.000315424 V=-0.564389 u1=0.439316 u2=0.996299 u3=0 Iion=2.18021
PIMPLE: iteration 1
DICPCG:  Solving for Vm, Initial residual = 8.73309e-06, Final residual = 8.39408e-16, No Iterations 4
PIMPLE: iteration 2
DICPCG:  Solving for Vm, Initial residual = 8.50823e-16, Final residual = 8.50823e-16, No Iterations 0
ExecutionTime = 88.49 s  ClockTime = 90 s

Time = 0.00375004

DEBUG cell=0 t=0.00371499→0.00375004 step=3.50471e-05 V=-0.564399 u1=0.439316 u2=0.996299 u3=0 Iion=2.18021
DEBUG cell=0 t=0.00371499→0.00375004 step=0.000315424 V=-0.564399 u1=0.439342 u2=0.996264 u3=0 Iion=2.18023
PIMPLE: iteration 1
DICPCG:  Solving for Vm, Initial residual = 8.73279e-06, Final residual = 8.39378e-16, No Iterations 4
PIMPLE: iteration 2
DICPCG:  Solving for Vm, Initial residual = 8.50834e-16, Final residual = 8.50834e-16, No Iterations 0
ExecutionTime = 89.32 s  ClockTime = 91 s

Time = 0.00378509

DEBUG cell=0 t=0.00375004→0.00378509 step=3.50471e-05 V=-0.564409 u1=0.439342 u2=0.996264 u3=0 Iion=2.18023
DEBUG cell=0 t=0.00375004→0.00378509 step=0.000315424 V=-0.564409 u1=0.439367 u2=0.996229 u3=0 Iion=2.18025
PIMPLE: iteration 1
DICPCG:  Solving for Vm, Initial residual = 8.73248e-06, Final residual = 8.39349e-16, No Iterations 4
PIMPLE: iteration 2
DICPCG:  Solving for Vm, Initial residual = 8.50713e-16, Final residual = 8.50713e-16, No Iterations 0
ExecutionTime = 90.16 s  ClockTime = 92 s

Time = 0.00382013

DEBUG cell=0 t=0.00378509→0.00382013 step=3.50471e-05 V=-0.564419 u1=0.439367 u2=0.996229 u3=0 Iion=2.18025
DEBUG cell=0 t=0.00378509→0.00382013 step=0.000315424 V=-0.564419 u1=0.439392 u2=0.996194 u3=0 Iion=2.18027
PIMPLE: iteration 1
DICPCG:  Solving for Vm, Initial residual = 8.73218e-06, Final residual = 8.3932e-16, No Iterations 4
PIMPLE: iteration 2
DICPCG:  Solving for Vm, Initial residual = 8.50815e-16, Final residual = 8.50815e-16, No Iterations 0
ExecutionTime = 91 s  ClockTime = 92 s

Time = 0.00385518

DEBUG cell=0 t=0.00382013→0.00385518 step=3.50471e-05 V=-0.564429 u1=0.439392 u2=0.996194 u3=0 Iion=2.18027
DEBUG cell=0 t=0.00382013→0.00385518 step=0.000315424 V=-0.564429 u1=0.439417 u2=0.99616 u3=0 Iion=2.18028
PIMPLE: iteration 1
DICPCG:  Solving for Vm, Initial residual = 8.73187e-06, Final residual = 8.3929e-16, No Iterations 4
PIMPLE: iteration 2
DICPCG:  Solving for Vm, Initial residual = 8.5073e-16, Final residual = 8.5073e-16, No Iterations 0
ExecutionTime = 91.85 s  ClockTime = 93 s

Time = 0.00389023

DEBUG cell=0 t=0.00385518→0.00389023 step=3.50471e-05 V=-0.564438 u1=0.439417 u2=0.99616 u3=0 Iion=2.18028
DEBUG cell=0 t=0.00385518→0.00389023 step=0.000315424 V=-0.564438 u1=0.439442 u2=0.996125 u3=0 Iion=2.1803
PIMPLE: iteration 1
DICPCG:  Solving for Vm, Initial residual = 8.73157e-06, Final residual = 8.39261e-16, No Iterations 4
PIMPLE: iteration 2
DICPCG:  Solving for Vm, Initial residual = 8.50693e-16, Final residual = 8.50693e-16, No Iterations 0
ExecutionTime = 92.7 s  ClockTime = 94 s

Time = 0.00392528

DEBUG cell=0 t=0.00389023→0.00392528 step=3.50471e-05 V=-0.564448 u1=0.439442 u2=0.996125 u3=0 Iion=2.1803
DEBUG cell=0 t=0.00389023→0.00392528 step=0.000315424 V=-0.564448 u1=0.439468 u2=0.99609 u3=0 Iion=2.18032
PIMPLE: iteration 1
DICPCG:  Solving for Vm, Initial residual = 8.73126e-06, Final residual = 8.39232e-16, No Iterations 4
PIMPLE: iteration 2
DICPCG:  Solving for Vm, Initial residual = 8.50726e-16, Final residual = 8.50726e-16, No Iterations 0
ExecutionTime = 93.57 s  ClockTime = 95 s

Time = 0.00396032

DEBUG cell=0 t=0.00392528→0.00396032 step=3.50471e-05 V=-0.564458 u1=0.439468 u2=0.99609 u3=0 Iion=2.18032
DEBUG cell=0 t=0.00392528→0.00396032 step=0.000315424 V=-0.564458 u1=0.439493 u2=0.996055 u3=0 Iion=2.18034
PIMPLE: iteration 1
DICPCG:  Solving for Vm, Initial residual = 8.73096e-06, Final residual = 8.39203e-16, No Iterations 4
PIMPLE: iteration 2
DICPCG:  Solving for Vm, Initial residual = 8.50695e-16, Final residual = 8.50695e-16, No Iterations 0
ExecutionTime = 94.4 s  ClockTime = 96 s

Time = 0.00399537

DEBUG cell=0 t=0.00396032→0.00399537 step=3.50471e-05 V=-0.564468 u1=0.439493 u2=0.996055 u3=0 Iion=2.18034
DEBUG cell=0 t=0.00396032→0.00399537 step=0.000315424 V=-0.564468 u1=0.439518 u2=0.996021 u3=0 Iion=2.18036
PIMPLE: iteration 1
DICPCG:  Solving for Vm, Initial residual = 8.73065e-06, Final residual = 8.39173e-16, No Iterations 4
PIMPLE: iteration 2
DICPCG:  Solving for Vm, Initial residual = 8.50673e-16, Final residual = 8.50673e-16, No Iterations 0
ExecutionTime = 95.22 s  ClockTime = 97 s

Time = 0.00403042

DEBUG cell=0 t=0.00399537→0.00403042 step=3.50471e-05 V=-0.564478 u1=0.439518 u2=0.996021 u3=0 Iion=2.18036
DEBUG cell=0 t=0.00399537→0.00403042 step=0.000315424 V=-0.564478 u1=0.439543 u2=0.995986 u3=0 Iion=2.18038
PIMPLE: iteration 1
DICPCG:  Solving for Vm, Initial residual = 8.73035e-06, Final residual = 8.39144e-16, No Iterations 4
PIMPLE: iteration 2
DICPCG:  Solving for Vm, Initial residual = 8.5055e-16, Final residual = 8.5055e-16, No Iterations 0
ExecutionTime = 96.06 s  ClockTime = 97 s

Time = 0.00406546

DEBUG cell=0 t=0.00403042→0.00406546 step=3.50471e-05 V=-0.564488 u1=0.439543 u2=0.995986 u3=0 Iion=2.18038
DEBUG cell=0 t=0.00403042→0.00406546 step=0.000315424 V=-0.564488 u1=0.439568 u2=0.995951 u3=0 Iion=2.1804
PIMPLE: iteration 1
DICPCG:  Solving for Vm, Initial residual = 8.73004e-06, Final residual = 8.39115e-16, No Iterations 4
PIMPLE: iteration 2
DICPCG:  Solving for Vm, Initial residual = 8.50549e-16, Final residual = 8.50549e-16, No Iterations 0
ExecutionTime = 96.92 s  ClockTime = 98 s

Time = 0.00410051

DEBUG cell=0 t=0.00406546→0.00410051 step=3.50471e-05 V=-0.564498 u1=0.439568 u2=0.995951 u3=0 Iion=2.1804
DEBUG cell=0 t=0.00406546→0.00410051 step=0.000315424 V=-0.564498 u1=0.439593 u2=0.995916 u3=0 Iion=2.18041
PIMPLE: iteration 1
DICPCG:  Solving for Vm, Initial residual = 8.72974e-06, Final residual = 8.39085e-16, No Iterations 4
PIMPLE: iteration 2
DICPCG:  Solving for Vm, Initial residual = 8.50635e-16, Final residual = 8.50635e-16, No Iterations 0
ExecutionTime = 97.76 s  ClockTime = 99 s

Time = 0.00413556

DEBUG cell=0 t=0.00410051→0.00413556 step=3.50471e-05 V=-0.564507 u1=0.439593 u2=0.995916 u3=0 Iion=2.18041
DEBUG cell=0 t=0.00410051→0.00413556 step=0.000315424 V=-0.564507 u1=0.439619 u2=0.995881 u3=0 Iion=2.18043
PIMPLE: iteration 1
DICPCG:  Solving for Vm, Initial residual = 8.72944e-06, Final residual = 8.39056e-16, No Iterations 4
PIMPLE: iteration 2
DICPCG:  Solving for Vm, Initial residual = 8.50473e-16, Final residual = 8.50473e-16, No Iterations 0
ExecutionTime = 98.58 s  ClockTime = 100 s

Time = 0.0041706

DEBUG cell=0 t=0.00413556→0.0041706 step=3.50471e-05 V=-0.564517 u1=0.439619 u2=0.995881 u3=0 Iion=2.18043
DEBUG cell=0 t=0.00413556→0.0041706 step=0.000315424 V=-0.564517 u1=0.439644 u2=0.995847 u3=0 Iion=2.18045
PIMPLE: iteration 1
DICPCG:  Solving for Vm, Initial residual = 8.72913e-06, Final residual = 8.39027e-16, No Iterations 4
PIMPLE: iteration 2
DICPCG:  Solving for Vm, Initial residual = 8.50542e-16, Final residual = 8.50542e-16, No Iterations 0
ExecutionTime = 99.43 s  ClockTime = 101 s

Time = 0.00420565

DEBUG cell=0 t=0.0041706→0.00420565 step=3.50471e-05 V=-0.564527 u1=0.439644 u2=0.995847 u3=0 Iion=2.18045
DEBUG cell=0 t=0.0041706→0.00420565 step=0.000315424 V=-0.564527 u1=0.439669 u2=0.995812 u3=0 Iion=2.18047
PIMPLE: iteration 1
DICPCG:  Solving for Vm, Initial residual = 8.72883e-06, Final residual = 8.38998e-16, No Iterations 4
PIMPLE: iteration 2
DICPCG:  Solving for Vm, Initial residual = 8.50339e-16, Final residual = 8.50339e-16, No Iterations 0
ExecutionTime = 100.27 s  ClockTime = 102 s

Time = 0.0042407

DEBUG cell=0 t=0.00420565→0.0042407 step=3.50471e-05 V=-0.564537 u1=0.439669 u2=0.995812 u3=0 Iion=2.18047
DEBUG cell=0 t=0.00420565→0.0042407 step=0.000315424 V=-0.564537 u1=0.439694 u2=0.995777 u3=0 Iion=2.18049
PIMPLE: iteration 1
DICPCG:  Solving for Vm, Initial residual = 8.72852e-06, Final residual = 8.38968e-16, No Iterations 4
PIMPLE: iteration 2
DICPCG:  Solving for Vm, Initial residual = 8.50409e-16, Final residual = 8.50409e-16, No Iterations 0
ExecutionTime = 101.15 s  ClockTime = 103 s

Time = 0.00427575

DEBUG cell=0 t=0.0042407→0.00427575 step=3.50471e-05 V=-0.564547 u1=0.439694 u2=0.995777 u3=0 Iion=2.18049
DEBUG cell=0 t=0.0042407→0.00427575 step=0.000315424 V=-0.564547 u1=0.439719 u2=0.995742 u3=0 Iion=2.18051
PIMPLE: iteration 1
DICPCG:  Solving for Vm, Initial residual = 8.72822e-06, Final residual = 8.38939e-16, No Iterations 4
PIMPLE: iteration 2
DICPCG:  Solving for Vm, Initial residual = 8.50395e-16, Final residual = 8.50395e-16, No Iterations 0
ExecutionTime = 102.02 s  ClockTime = 103 s

Time = 0.00431079

DEBUG cell=0 t=0.00427575→0.00431079 step=3.50471e-05 V=-0.564557 u1=0.439719 u2=0.995742 u3=0 Iion=2.18051
DEBUG cell=0 t=0.00427575→0.00431079 step=0.000315424 V=-0.564557 u1=0.439745 u2=0.995708 u3=0 Iion=2.18052
PIMPLE: iteration 1
DICPCG:  Solving for Vm, Initial residual = 8.72791e-06, Final residual = 8.3891e-16, No Iterations 4
PIMPLE: iteration 2
DICPCG:  Solving for Vm, Initial residual = 8.50326e-16, Final residual = 8.50326e-16, No Iterations 0
ExecutionTime = 102.89 s  ClockTime = 104 s

Time = 0.00434584

DEBUG cell=0 t=0.00431079→0.00434584 step=3.50471e-05 V=-0.564567 u1=0.439745 u2=0.995708 u3=0 Iion=2.18052
DEBUG cell=0 t=0.00431079→0.00434584 step=0.000315424 V=-0.564567 u1=0.43977 u2=0.995673 u3=0 Iion=2.18054
PIMPLE: iteration 1
DICPCG:  Solving for Vm, Initial residual = 8.72761e-06, Final residual = 8.38881e-16, No Iterations 4
PIMPLE: iteration 2
DICPCG:  Solving for Vm, Initial residual = 8.50355e-16, Final residual = 8.50355e-16, No Iterations 0
ExecutionTime = 103.78 s  ClockTime = 105 s

Time = 0.00438089

DEBUG cell=0 t=0.00434584→0.00438089 step=3.50471e-05 V=-0.564576 u1=0.43977 u2=0.995673 u3=0 Iion=2.18054
DEBUG cell=0 t=0.00434584→0.00438089 step=0.000315424 V=-0.564576 u1=0.439795 u2=0.995638 u3=0 Iion=2.18056
PIMPLE: iteration 1
DICPCG:  Solving for Vm, Initial residual = 8.7273e-06, Final residual = 8.38851e-16, No Iterations 4
PIMPLE: iteration 2
DICPCG:  Solving for Vm, Initial residual = 8.50319e-16, Final residual = 8.50319e-16, No Iterations 0
ExecutionTime = 104.65 s  ClockTime = 106 s

Time = 0.00441593

DEBUG cell=0 t=0.00438089→0.00441593 step=3.50471e-05 V=-0.564586 u1=0.439795 u2=0.995638 u3=0 Iion=2.18056
DEBUG cell=0 t=0.00438089→0.00441593 step=0.000315424 V=-0.564586 u1=0.43982 u2=0.995604 u3=0 Iion=2.18058
PIMPLE: iteration 1
DICPCG:  Solving for Vm, Initial residual = 8.727e-06, Final residual = 8.38822e-16, No Iterations 4
PIMPLE: iteration 2
DICPCG:  Solving for Vm, Initial residual = 8.50274e-16, Final residual = 8.50274e-16, No Iterations 0
ExecutionTime = 105.53 s  ClockTime = 107 s

Time = 0.00445098

DEBUG cell=0 t=0.00441593→0.00445098 step=3.50471e-05 V=-0.564596 u1=0.43982 u2=0.995604 u3=0 Iion=2.18058
DEBUG cell=0 t=0.00441593→0.00445098 step=0.000315424 V=-0.564596 u1=0.439845 u2=0.995569 u3=0 Iion=2.1806
PIMPLE: iteration 1
DICPCG:  Solving for Vm, Initial residual = 8.7267e-06, Final residual = 8.38793e-16, No Iterations 4
PIMPLE: iteration 2
DICPCG:  Solving for Vm, Initial residual = 8.50283e-16, Final residual = 8.50283e-16, No Iterations 0
ExecutionTime = 106.42 s  ClockTime = 108 s

Time = 0.00448603

DEBUG cell=0 t=0.00445098→0.00448603 step=3.50471e-05 V=-0.564606 u1=0.439845 u2=0.995569 u3=0 Iion=2.1806
DEBUG cell=0 t=0.00445098→0.00448603 step=0.000315424 V=-0.564606 u1=0.439871 u2=0.995534 u3=0 Iion=2.18062
PIMPLE: iteration 1
DICPCG:  Solving for Vm, Initial residual = 8.72639e-06, Final residual = 8.38764e-16, No Iterations 4
PIMPLE: iteration 2
DICPCG:  Solving for Vm, Initial residual = 8.50178e-16, Final residual = 8.50178e-16, No Iterations 0
ExecutionTime = 107.3 s  ClockTime = 109 s

Time = 0.00452108

DEBUG cell=0 t=0.00448603→0.00452108 step=3.50471e-05 V=-0.564616 u1=0.439871 u2=0.995534 u3=0 Iion=2.18062
DEBUG cell=0 t=0.00448603→0.00452108 step=0.000315424 V=-0.564616 u1=0.439896 u2=0.995499 u3=0 Iion=2.18063
PIMPLE: iteration 1
DICPCG:  Solving for Vm, Initial residual = 8.72609e-06, Final residual = 8.38734e-16, No Iterations 4
PIMPLE: iteration 2
DICPCG:  Solving for Vm, Initial residual = 8.50118e-16, Final residual = 8.50118e-16, No Iterations 0
ExecutionTime = 108.1 s  ClockTime = 110 s

Time = 0.00455612

DEBUG cell=0 t=0.00452108→0.00455612 step=3.50471e-05 V=-0.564626 u1=0.439896 u2=0.995499 u3=0 Iion=2.18063
DEBUG cell=0 t=0.00452108→0.00455612 step=0.000315424 V=-0.564626 u1=0.439921 u2=0.995465 u3=0 Iion=2.18065
PIMPLE: iteration 1
DICPCG:  Solving for Vm, Initial residual = 8.72578e-06, Final residual = 8.38705e-16, No Iterations 4
PIMPLE: iteration 2
DICPCG:  Solving for Vm, Initial residual = 8.50128e-16, Final residual = 8.50128e-16, No Iterations 0
ExecutionTime = 108.92 s  ClockTime = 110 s

Time = 0.00459117

DEBUG cell=0 t=0.00455612→0.00459117 step=3.50471e-05 V=-0.564636 u1=0.439921 u2=0.995465 u3=0 Iion=2.18065
DEBUG cell=0 t=0.00455612→0.00459117 step=0.000315424 V=-0.564636 u1=0.439946 u2=0.99543 u3=0 Iion=2.18067
PIMPLE: iteration 1
DICPCG:  Solving for Vm, Initial residual = 8.72548e-06, Final residual = 8.38676e-16, No Iterations 4
PIMPLE: iteration 2
DICPCG:  Solving for Vm, Initial residual = 8.50185e-16, Final residual = 8.50185e-16, No Iterations 0
ExecutionTime = 109.77 s  ClockTime = 111 s

Time = 0.00462622

DEBUG cell=0 t=0.00459117→0.00462622 step=3.50471e-05 V=-0.564645 u1=0.439946 u2=0.99543 u3=0 Iion=2.18067
DEBUG cell=0 t=0.00459117→0.00462622 step=0.000315424 V=-0.564645 u1=0.439971 u2=0.995395 u3=0 Iion=2.18069
PIMPLE: iteration 1
DICPCG:  Solving for Vm, Initial residual = 8.72517e-06, Final residual = 8.38647e-16, No Iterations 4
PIMPLE: iteration 2
DICPCG:  Solving for Vm, Initial residual = 8.50179e-16, Final residual = 8.50179e-16, No Iterations 0
ExecutionTime = 110.64 s  ClockTime = 112 s

Time = 0.00466126

DEBUG cell=0 t=0.00462622→0.00466126 step=3.50471e-05 V=-0.564655 u1=0.439971 u2=0.995395 u3=0 Iion=2.18069
DEBUG cell=0 t=0.00462622→0.00466126 step=0.000315424 V=-0.564655 u1=0.439997 u2=0.99536 u3=0 Iion=2.18071
PIMPLE: iteration 1
DICPCG:  Solving for Vm, Initial residual = 8.72487e-06, Final residual = 8.38617e-16, No Iterations 4
PIMPLE: iteration 2
DICPCG:  Solving for Vm, Initial residual = 8.50034e-16, Final residual = 8.50034e-16, No Iterations 0
ExecutionTime = 111.49 s  ClockTime = 113 s

Time = 0.00469631

DEBUG cell=0 t=0.00466126→0.00469631 step=3.50471e-05 V=-0.564665 u1=0.439997 u2=0.99536 u3=0 Iion=2.18071
DEBUG cell=0 t=0.00466126→0.00469631 step=0.000315424 V=-0.564665 u1=0.440022 u2=0.995326 u3=0 Iion=2.18073
PIMPLE: iteration 1
DICPCG:  Solving for Vm, Initial residual = 8.72457e-06, Final residual = 8.38588e-16, No Iterations 4
PIMPLE: iteration 2
DICPCG:  Solving for Vm, Initial residual = 8.50002e-16, Final residual = 8.50002e-16, No Iterations 0
ExecutionTime = 112.32 s  ClockTime = 114 s

Time = 0.00473136

DEBUG cell=0 t=0.00469631→0.00473136 step=3.50471e-05 V=-0.564675 u1=0.440022 u2=0.995326 u3=0 Iion=2.18073
DEBUG cell=0 t=0.00469631→0.00473136 step=0.000315424 V=-0.564675 u1=0.440047 u2=0.995291 u3=0 Iion=2.18075
PIMPLE: iteration 1
DICPCG:  Solving for Vm, Initial residual = 8.72426e-06, Final residual = 8.38559e-16, No Iterations 4
PIMPLE: iteration 2
DICPCG:  Solving for Vm, Initial residual = 8.49915e-16, Final residual = 8.49915e-16, No Iterations 0
ExecutionTime = 113.15 s  ClockTime = 115 s

Time = 0.00476641

DEBUG cell=0 t=0.00473136→0.00476641 step=3.50471e-05 V=-0.564685 u1=0.440047 u2=0.995291 u3=0 Iion=2.18075
DEBUG cell=0 t=0.00473136→0.00476641 step=0.000315424 V=-0.564685 u1=0.440072 u2=0.995256 u3=0 Iion=2.18076
PIMPLE: iteration 1
DICPCG:  Solving for Vm, Initial residual = 8.72396e-06, Final residual = 8.3853e-16, No Iterations 4
PIMPLE: iteration 2
DICPCG:  Solving for Vm, Initial residual = 8.50006e-16, Final residual = 8.50006e-16, No Iterations 0
ExecutionTime = 113.98 s  ClockTime = 115 s

Time = 0.00480145

DEBUG cell=0 t=0.00476641→0.00480145 step=3.50471e-05 V=-0.564695 u1=0.440072 u2=0.995256 u3=0 Iion=2.18076
DEBUG cell=0 t=0.00476641→0.00480145 step=0.000315424 V=-0.564695 u1=0.440097 u2=0.995222 u3=0 Iion=2.18078
PIMPLE: iteration 1
DICPCG:  Solving for Vm, Initial residual = 8.72365e-06, Final residual = 8.385e-16, No Iterations 4
PIMPLE: iteration 2
DICPCG:  Solving for Vm, Initial residual = 8.49979e-16, Final residual = 8.49979e-16, No Iterations 0
ExecutionTime = 114.84 s  ClockTime = 116 s

Time = 0.0048365

DEBUG cell=0 t=0.00480145→0.0048365 step=3.50471e-05 V=-0.564705 u1=0.440097 u2=0.995222 u3=0 Iion=2.18078
DEBUG cell=0 t=0.00480145→0.0048365 step=0.000315424 V=-0.564705 u1=0.440123 u2=0.995187 u3=0 Iion=2.1808
PIMPLE: iteration 1
DICPCG:  Solving for Vm, Initial residual = 8.72335e-06, Final residual = 8.38471e-16, No Iterations 4
PIMPLE: iteration 2
DICPCG:  Solving for Vm, Initial residual = 8.49915e-16, Final residual = 8.49915e-16, No Iterations 0
ExecutionTime = 115.7 s  ClockTime = 117 s

Time = 0.00487155

DEBUG cell=0 t=0.0048365→0.00487155 step=3.50471e-05 V=-0.564714 u1=0.440123 u2=0.995187 u3=0 Iion=2.1808
DEBUG cell=0 t=0.0048365→0.00487155 step=0.000315424 V=-0.564714 u1=0.440148 u2=0.995152 u3=0 Iion=2.18082
PIMPLE: iteration 1
DICPCG:  Solving for Vm, Initial residual = 8.72304e-06, Final residual = 8.38442e-16, No Iterations 4
PIMPLE: iteration 2
DICPCG:  Solving for Vm, Initial residual = 8.49843e-16, Final residual = 8.49843e-16, No Iterations 0
ExecutionTime = 116.54 s  ClockTime = 118 s

Time = 0.00490659

DEBUG cell=0 t=0.00487155→0.00490659 step=3.50471e-05 V=-0.564724 u1=0.440148 u2=0.995152 u3=0 Iion=2.18082
DEBUG cell=0 t=0.00487155→0.00490659 step=0.000315424 V=-0.564724 u1=0.440173 u2=0.995117 u3=0 Iion=2.18084
PIMPLE: iteration 1
DICPCG:  Solving for Vm, Initial residual = 8.72274e-06, Final residual = 8.38413e-16, No Iterations 4
PIMPLE: iteration 2
DICPCG:  Solving for Vm, Initial residual = 8.49858e-16, Final residual = 8.49858e-16, No Iterations 0
ExecutionTime = 117.39 s  ClockTime = 119 s

Time = 0.00494164

DEBUG cell=0 t=0.00490659→0.00494164 step=3.50471e-05 V=-0.564734 u1=0.440173 u2=0.995117 u3=0 Iion=2.18084
DEBUG cell=0 t=0.00490659→0.00494164 step=0.000315424 V=-0.564734 u1=0.440198 u2=0.995083 u3=0 Iion=2.18086
PIMPLE: iteration 1
DICPCG:  Solving for Vm, Initial residual = 8.72244e-06, Final residual = 8.38383e-16, No Iterations 4
PIMPLE: iteration 2
DICPCG:  Solving for Vm, Initial residual = 8.49875e-16, Final residual = 8.49875e-16, No Iterations 0
ExecutionTime = 118.22 s  ClockTime = 120 s

Time = 0.00497669

DEBUG cell=0 t=0.00494164→0.00497669 step=3.50471e-05 V=-0.564744 u1=0.440198 u2=0.995083 u3=0 Iion=2.18086
DEBUG cell=0 t=0.00494164→0.00497669 step=0.000315424 V=-0.564744 u1=0.440223 u2=0.995048 u3=0 Iion=2.18087
PIMPLE: iteration 1
DICPCG:  Solving for Vm, Initial residual = 8.72213e-06, Final residual = 8.38354e-16, No Iterations 4
PIMPLE: iteration 2
DICPCG:  Solving for Vm, Initial residual = 8.49867e-16, Final residual = 8.49867e-16, No Iterations 0
ExecutionTime = 119.07 s  ClockTime = 121 s

Time = 0.00501174

DEBUG cell=0 t=0.00497669→0.00501174 step=3.50471e-05 V=-0.564754 u1=0.440223 u2=0.995048 u3=0 Iion=2.18087
DEBUG cell=0 t=0.00497669→0.00501174 step=0.000315424 V=-0.564754 u1=0.440249 u2=0.995013 u3=0 Iion=2.18089
PIMPLE: iteration 1
DICPCG:  Solving for Vm, Initial residual = 8.72183e-06, Final residual = 8.38325e-16, No Iterations 4
PIMPLE: iteration 2
DICPCG:  Solving for Vm, Initial residual = 8.49785e-16, Final residual = 8.49785e-16, No Iterations 0
ExecutionTime = 119.93 s  ClockTime = 121 s

Time = 0.00504678

DEBUG cell=0 t=0.00501174→0.00504678 step=3.50471e-05 V=-0.564764 u1=0.440249 u2=0.995013 u3=0 Iion=2.18089
DEBUG cell=0 t=0.00501174→0.00504678 step=0.000315424 V=-0.564764 u1=0.440274 u2=0.994979 u3=0 Iion=2.18091
PIMPLE: iteration 1
DICPCG:  Solving for Vm, Initial residual = 8.72152e-06, Final residual = 8.38296e-16, No Iterations 4
PIMPLE: iteration 2
DICPCG:  Solving for Vm, Initial residual = 8.49799e-16, Final residual = 8.49799e-16, No Iterations 0
ExecutionTime = 120.78 s  ClockTime = 122 s

Time = 0.00508183

DEBUG cell=0 t=0.00504678→0.00508183 step=3.50471e-05 V=-0.564774 u1=0.440274 u2=0.994979 u3=0 Iion=2.18091
DEBUG cell=0 t=0.00504678→0.00508183 step=0.000315424 V=-0.564774 u1=0.440299 u2=0.994944 u3=0 Iion=2.18093
PIMPLE: iteration 1
DICPCG:  Solving for Vm, Initial residual = 8.72122e-06, Final residual = 8.38267e-16, No Iterations 4
PIMPLE: iteration 2
DICPCG:  Solving for Vm, Initial residual = 8.49738e-16, Final residual = 8.49738e-16, No Iterations 0
ExecutionTime = 121.61 s  ClockTime = 123 s

Time = 0.00511688

DEBUG cell=0 t=0.00508183→0.00511688 step=3.50471e-05 V=-0.564783 u1=0.440299 u2=0.994944 u3=0 Iion=2.18093
DEBUG cell=0 t=0.00508183→0.00511688 step=0.000315424 V=-0.564783 u1=0.440324 u2=0.994909 u3=0 Iion=2.18095
PIMPLE: iteration 1
DICPCG:  Solving for Vm, Initial residual = 8.72092e-06, Final residual = 8.38237e-16, No Iterations 4
PIMPLE: iteration 2
DICPCG:  Solving for Vm, Initial residual = 8.49673e-16, Final residual = 8.49673e-16, No Iterations 0
ExecutionTime = 122.46 s  ClockTime = 124 s

Time = 0.00515192

DEBUG cell=0 t=0.00511688→0.00515192 step=3.50471e-05 V=-0.564793 u1=0.440324 u2=0.994909 u3=0 Iion=2.18095
DEBUG cell=0 t=0.00511688→0.00515192 step=0.000315424 V=-0.564793 u1=0.440349 u2=0.994875 u3=0 Iion=2.18097
PIMPLE: iteration 1
DICPCG:  Solving for Vm, Initial residual = 8.72061e-06, Final residual = 8.38208e-16, No Iterations 4
PIMPLE: iteration 2
DICPCG:  Solving for Vm, Initial residual = 8.49634e-16, Final residual = 8.49634e-16, No Iterations 0
ExecutionTime = 123.29 s  ClockTime = 125 s

Time = 0.00518697

DEBUG cell=0 t=0.00515192→0.00518697 step=3.50471e-05 V=-0.564803 u1=0.440349 u2=0.994875 u3=0 Iion=2.18097
DEBUG cell=0 t=0.00515192→0.00518697 step=0.000315424 V=-0.564803 u1=0.440375 u2=0.99484 u3=0 Iion=2.18099
PIMPLE: iteration 1
DICPCG:  Solving for Vm, Initial residual = 8.72031e-06, Final residual = 8.38179e-16, No Iterations 4
[...]
PIMPLE: iteration 2
DICPCG:  Solving for Vm, Initial residual = 7.19208e-16, Final residual = 7.19208e-16, No Iterations 0
ExecutionTime = 3350.88 s  ClockTime = 3375 s

Time = 0.198752

DEBUG cell=0 t=0.198717→0.198752 step=3.50471e-05 V=-0.616818 u1=0.581926 u2=0.834224 u3=0 Iion=2.28275
DEBUG cell=0 t=0.198717→0.198752 step=0.000315424 V=-0.616818 u1=0.581952 u2=0.8342 u3=0 Iion=2.28277
PIMPLE: iteration 1
DICPCG:  Solving for Vm, Initial residual = 7.3129e-06, Final residual = 7.02899e-16, No Iterations 4
PIMPLE: iteration 2
DICPCG:  Solving for Vm, Initial residual = 7.18984e-16, Final residual = 7.18984e-16, No Iterations 0
ExecutionTime = 3351.43 s  ClockTime = 3376 s

Time = 0.198787

DEBUG cell=0 t=0.198752→0.198787 step=3.50471e-05 V=-0.616827 u1=0.581952 u2=0.8342 u3=0 Iion=2.28277
DEBUG cell=0 t=0.198752→0.198787 step=0.000315424 V=-0.616827 u1=0.581978 u2=0.834176 u3=0 Iion=2.28279
PIMPLE: iteration 1
DICPCG:  Solving for Vm, Initial residual = 7.31268e-06, Final residual = 7.02879e-16, No Iterations 4
PIMPLE: iteration 2
DICPCG:  Solving for Vm, Initial residual = 7.18966e-16, Final residual = 7.18966e-16, No Iterations 0
ExecutionTime = 3352.01 s  ClockTime = 3376 s

Time = 0.198822

DEBUG cell=0 t=0.198787→0.198822 step=3.50471e-05 V=-0.616836 u1=0.581978 u2=0.834176 u3=0 Iion=2.28279
DEBUG cell=0 t=0.198787→0.198822 step=0.000315424 V=-0.616836 u1=0.582004 u2=0.834151 u3=0 Iion=2.28281
PIMPLE: iteration 1
DICPCG:  Solving for Vm, Initial residual = 7.31247e-06, Final residual = 7.02858e-16, No Iterations 4
PIMPLE: iteration 2
DICPCG:  Solving for Vm, Initial residual = 7.19109e-16, Final residual = 7.19109e-16, No Iterations 0
ExecutionTime = 3352.56 s  ClockTime = 3377 s

Time = 0.198857

DEBUG cell=0 t=0.198822→0.198857 step=3.50471e-05 V=-0.616845 u1=0.582004 u2=0.834151 u3=0 Iion=2.28281
DEBUG cell=0 t=0.198822→0.198857 step=0.000315424 V=-0.616845 u1=0.58203 u2=0.834127 u3=0 Iion=2.28282
PIMPLE: iteration 1
DICPCG:  Solving for Vm, Initial residual = 7.31225e-06, Final residual = 7.02838e-16, No Iterations 4
PIMPLE: iteration 2
DICPCG:  Solving for Vm, Initial residual = 7.18992e-16, Final residual = 7.18992e-16, No Iterations 0
ExecutionTime = 3353.12 s  ClockTime = 3378 s

Time = 0.198892

DEBUG cell=0 t=0.198857→0.198892 step=3.50471e-05 V=-0.616854 u1=0.58203 u2=0.834127 u3=0 Iion=2.28282
DEBUG cell=0 t=0.198857→0.198892 step=0.000315424 V=-0.616854 u1=0.582056 u2=0.834102 u3=0 Iion=2.28284
PIMPLE: iteration 1
DICPCG:  Solving for Vm, Initial residual = 7.31204e-06, Final residual = 7.02817e-16, No Iterations 4
PIMPLE: iteration 2
DICPCG:  Solving for Vm, Initial residual = 7.18954e-16, Final residual = 7.18954e-16, No Iterations 0
ExecutionTime = 3353.66 s  ClockTime = 3378 s

Time = 0.198927

DEBUG cell=0 t=0.198892→0.198927 step=3.50471e-05 V=-0.616863 u1=0.582056 u2=0.834102 u3=0 Iion=2.28284
DEBUG cell=0 t=0.198892→0.198927 step=0.000315424 V=-0.616863 u1=0.582082 u2=0.834078 u3=0 Iion=2.28286
PIMPLE: iteration 1
DICPCG:  Solving for Vm, Initial residual = 7.31183e-06, Final residual = 7.02797e-16, No Iterations 4
PIMPLE: iteration 2
DICPCG:  Solving for Vm, Initial residual = 7.19022e-16, Final residual = 7.19022e-16, No Iterations 0
ExecutionTime = 3354.2 s  ClockTime = 3379 s

Time = 0.198962

DEBUG cell=0 t=0.198927→0.198962 step=3.50471e-05 V=-0.616872 u1=0.582082 u2=0.834078 u3=0 Iion=2.28286
DEBUG cell=0 t=0.198927→0.198962 step=0.000315424 V=-0.616872 u1=0.582108 u2=0.834054 u3=0 Iion=2.28288
PIMPLE: iteration 1
DICPCG:  Solving for Vm, Initial residual = 7.31161e-06, Final residual = 7.02776e-16, No Iterations 4
PIMPLE: iteration 2
DICPCG:  Solving for Vm, Initial residual = 7.18881e-16, Final residual = 7.18881e-16, No Iterations 0
ExecutionTime = 3354.76 s  ClockTime = 3379 s

Time = 0.198997

DEBUG cell=0 t=0.198962→0.198997 step=3.50471e-05 V=-0.616881 u1=0.582108 u2=0.834054 u3=0 Iion=2.28288
DEBUG cell=0 t=0.198962→0.198997 step=0.000315424 V=-0.616881 u1=0.582134 u2=0.834029 u3=0 Iion=2.2829
PIMPLE: iteration 1
DICPCG:  Solving for Vm, Initial residual = 7.3114e-06, Final residual = 7.02756e-16, No Iterations 4
PIMPLE: iteration 2
DICPCG:  Solving for Vm, Initial residual = 7.18932e-16, Final residual = 7.18932e-16, No Iterations 0
ExecutionTime = 3355.32 s  ClockTime = 3380 s

Time = 0.199032

DEBUG cell=0 t=0.198997→0.199032 step=3.50471e-05 V=-0.61689 u1=0.582134 u2=0.834029 u3=0 Iion=2.2829
DEBUG cell=0 t=0.198997→0.199032 step=0.000315424 V=-0.61689 u1=0.58216 u2=0.834005 u3=0 Iion=2.28292
PIMPLE: iteration 1
DICPCG:  Solving for Vm, Initial residual = 7.31119e-06, Final residual = 7.02735e-16, No Iterations 4
PIMPLE: iteration 2
DICPCG:  Solving for Vm, Initial residual = 7.18945e-16, Final residual = 7.18945e-16, No Iterations 0
ExecutionTime = 3355.87 s  ClockTime = 3380 s

Time = 0.199068

DEBUG cell=0 t=0.199032→0.199068 step=3.50471e-05 V=-0.616899 u1=0.58216 u2=0.834005 u3=0 Iion=2.28292
DEBUG cell=0 t=0.199032→0.199068 step=0.000315424 V=-0.616899 u1=0.582187 u2=0.83398 u3=0 Iion=2.28293
PIMPLE: iteration 1
DICPCG:  Solving for Vm, Initial residual = 7.31097e-06, Final residual = 7.02715e-16, No Iterations 4
PIMPLE: iteration 2
DICPCG:  Solving for Vm, Initial residual = 7.18888e-16, Final residual = 7.18888e-16, No Iterations 0
ExecutionTime = 3356.43 s  ClockTime = 3381 s

Time = 0.199103

DEBUG cell=0 t=0.199068→0.199103 step=3.50471e-05 V=-0.616908 u1=0.582187 u2=0.83398 u3=0 Iion=2.28293
DEBUG cell=0 t=0.199068→0.199103 step=0.000315424 V=-0.616908 u1=0.582213 u2=0.833956 u3=0 Iion=2.28295
PIMPLE: iteration 1
DICPCG:  Solving for Vm, Initial residual = 7.31076e-06, Final residual = 7.02694e-16, No Iterations 4
PIMPLE: iteration 2
DICPCG:  Solving for Vm, Initial residual = 7.18886e-16, Final residual = 7.18886e-16, No Iterations 0
ExecutionTime = 3357 s  ClockTime = 3382 s

Time = 0.199138

DEBUG cell=0 t=0.199103→0.199138 step=3.50471e-05 V=-0.616917 u1=0.582213 u2=0.833956 u3=0 Iion=2.28295
DEBUG cell=0 t=0.199103→0.199138 step=0.000315424 V=-0.616917 u1=0.582239 u2=0.833932 u3=0 Iion=2.28297
PIMPLE: iteration 1
DICPCG:  Solving for Vm, Initial residual = 7.31055e-06, Final residual = 7.02674e-16, No Iterations 4
PIMPLE: iteration 2
DICPCG:  Solving for Vm, Initial residual = 7.1894e-16, Final residual = 7.1894e-16, No Iterations 0
ExecutionTime = 3357.55 s  ClockTime = 3382 s

Time = 0.199173

DEBUG cell=0 t=0.199138→0.199173 step=3.50471e-05 V=-0.616926 u1=0.582239 u2=0.833932 u3=0 Iion=2.28297
DEBUG cell=0 t=0.199138→0.199173 step=0.000315424 V=-0.616926 u1=0.582265 u2=0.833907 u3=0 Iion=2.28299
PIMPLE: iteration 1
DICPCG:  Solving for Vm, Initial residual = 7.31033e-06, Final residual = 7.02653e-16, No Iterations 4
PIMPLE: iteration 2
DICPCG:  Solving for Vm, Initial residual = 7.18826e-16, Final residual = 7.18826e-16, No Iterations 0
ExecutionTime = 3358.1 s  ClockTime = 3383 s

Time = 0.199208

DEBUG cell=0 t=0.199173→0.199208 step=3.50471e-05 V=-0.616935 u1=0.582265 u2=0.833907 u3=0 Iion=2.28299
DEBUG cell=0 t=0.199173→0.199208 step=0.000315424 V=-0.616935 u1=0.582291 u2=0.833883 u3=0 Iion=2.28301
PIMPLE: iteration 1
DICPCG:  Solving for Vm, Initial residual = 7.31012e-06, Final residual = 7.02633e-16, No Iterations 4
PIMPLE: iteration 2
DICPCG:  Solving for Vm, Initial residual = 7.18905e-16, Final residual = 7.18905e-16, No Iterations 0
ExecutionTime = 3358.66 s  ClockTime = 3383 s

Time = 0.199243

DEBUG cell=0 t=0.199208→0.199243 step=3.50471e-05 V=-0.616944 u1=0.582291 u2=0.833883 u3=0 Iion=2.28301
DEBUG cell=0 t=0.199208→0.199243 step=0.000315424 V=-0.616944 u1=0.582317 u2=0.833859 u3=0 Iion=2.28303
PIMPLE: iteration 1
DICPCG:  Solving for Vm, Initial residual = 7.30991e-06, Final residual = 7.02612e-16, No Iterations 4
PIMPLE: iteration 2
DICPCG:  Solving for Vm, Initial residual = 7.18755e-16, Final residual = 7.18755e-16, No Iterations 0
ExecutionTime = 3359.22 s  ClockTime = 3384 s

Time = 0.199278

DEBUG cell=0 t=0.199243→0.199278 step=3.50471e-05 V=-0.616953 u1=0.582317 u2=0.833859 u3=0 Iion=2.28303
DEBUG cell=0 t=0.199243→0.199278 step=0.000315424 V=-0.616953 u1=0.582343 u2=0.833834 u3=0 Iion=2.28304
PIMPLE: iteration 1
DICPCG:  Solving for Vm, Initial residual = 7.30969e-06, Final residual = 7.02592e-16, No Iterations 4
PIMPLE: iteration 2
DICPCG:  Solving for Vm, Initial residual = 7.18949e-16, Final residual = 7.18949e-16, No Iterations 0
ExecutionTime = 3359.78 s  ClockTime = 3384 s

Time = 0.199313

DEBUG cell=0 t=0.199278→0.199313 step=3.50471e-05 V=-0.616963 u1=0.582343 u2=0.833834 u3=0 Iion=2.28304
DEBUG cell=0 t=0.199278→0.199313 step=0.000315424 V=-0.616963 u1=0.582369 u2=0.83381 u3=0 Iion=2.28306
PIMPLE: iteration 1
DICPCG:  Solving for Vm, Initial residual = 7.30948e-06, Final residual = 7.02571e-16, No Iterations 4
PIMPLE: iteration 2
DICPCG:  Solving for Vm, Initial residual = 7.18672e-16, Final residual = 7.18672e-16, No Iterations 0
ExecutionTime = 3360.32 s  ClockTime = 3385 s

Time = 0.199348

DEBUG cell=0 t=0.199313→0.199348 step=3.50471e-05 V=-0.616972 u1=0.582369 u2=0.83381 u3=0 Iion=2.28306
DEBUG cell=0 t=0.199313→0.199348 step=0.000315424 V=-0.616972 u1=0.582395 u2=0.833786 u3=0 Iion=2.28308
PIMPLE: iteration 1
DICPCG:  Solving for Vm, Initial residual = 7.30926e-06, Final residual = 7.02551e-16, No Iterations 4
PIMPLE: iteration 2
DICPCG:  Solving for Vm, Initial residual = 7.18795e-16, Final residual = 7.18795e-16, No Iterations 0
ExecutionTime = 3360.87 s  ClockTime = 3385 s

Time = 0.199383

DEBUG cell=0 t=0.199348→0.199383 step=3.50471e-05 V=-0.616981 u1=0.582395 u2=0.833786 u3=0 Iion=2.28308
DEBUG cell=0 t=0.199348→0.199383 step=0.000315424 V=-0.616981 u1=0.582421 u2=0.833761 u3=0 Iion=2.2831
PIMPLE: iteration 1
DICPCG:  Solving for Vm, Initial residual = 7.30905e-06, Final residual = 7.0253e-16, No Iterations 4
PIMPLE: iteration 2
DICPCG:  Solving for Vm, Initial residual = 7.18748e-16, Final residual = 7.18748e-16, No Iterations 0
ExecutionTime = 3361.43 s  ClockTime = 3386 s

Time = 0.199418

DEBUG cell=0 t=0.199383→0.199418 step=3.50471e-05 V=-0.61699 u1=0.582421 u2=0.833761 u3=0 Iion=2.2831
DEBUG cell=0 t=0.199383→0.199418 step=0.000315424 V=-0.61699 u1=0.582447 u2=0.833737 u3=0 Iion=2.28312
PIMPLE: iteration 1
DICPCG:  Solving for Vm, Initial residual = 7.30884e-06, Final residual = 7.02509e-16, No Iterations 4
PIMPLE: iteration 2
DICPCG:  Solving for Vm, Initial residual = 7.18787e-16, Final residual = 7.18787e-16, No Iterations 0
ExecutionTime = 3361.98 s  ClockTime = 3387 s

Time = 0.199453

DEBUG cell=0 t=0.199418→0.199453 step=3.50471e-05 V=-0.616999 u1=0.582447 u2=0.833737 u3=0 Iion=2.28312
DEBUG cell=0 t=0.199418→0.199453 step=0.000315424 V=-0.616999 u1=0.582473 u2=0.833712 u3=0 Iion=2.28314
PIMPLE: iteration 1
DICPCG:  Solving for Vm, Initial residual = 7.30862e-06, Final residual = 7.02489e-16, No Iterations 4
PIMPLE: iteration 2
DICPCG:  Solving for Vm, Initial residual = 7.18835e-16, Final residual = 7.18835e-16, No Iterations 0
ExecutionTime = 3362.52 s  ClockTime = 3387 s

Time = 0.199488

DEBUG cell=0 t=0.199453→0.199488 step=3.50471e-05 V=-0.617008 u1=0.582473 u2=0.833712 u3=0 Iion=2.28314
DEBUG cell=0 t=0.199453→0.199488 step=0.000315424 V=-0.617008 u1=0.582499 u2=0.833688 u3=0 Iion=2.28315
PIMPLE: iteration 1
DICPCG:  Solving for Vm, Initial residual = 7.30841e-06, Final residual = 7.02468e-16, No Iterations 4
PIMPLE: iteration 2
DICPCG:  Solving for Vm, Initial residual = 7.18674e-16, Final residual = 7.18674e-16, No Iterations 0
ExecutionTime = 3363.06 s  ClockTime = 3388 s

Time = 0.199523

DEBUG cell=0 t=0.199488→0.199523 step=3.50471e-05 V=-0.617017 u1=0.582499 u2=0.833688 u3=0 Iion=2.28315
DEBUG cell=0 t=0.199488→0.199523 step=0.000315424 V=-0.617017 u1=0.582525 u2=0.833664 u3=0 Iion=2.28317
PIMPLE: iteration 1
DICPCG:  Solving for Vm, Initial residual = 7.3082e-06, Final residual = 7.02448e-16, No Iterations 4
PIMPLE: iteration 2
DICPCG:  Solving for Vm, Initial residual = 7.18778e-16, Final residual = 7.18778e-16, No Iterations 0
ExecutionTime = 3363.63 s  ClockTime = 3388 s

Time = 0.199558

DEBUG cell=0 t=0.199523→0.199558 step=3.50471e-05 V=-0.617026 u1=0.582525 u2=0.833664 u3=0 Iion=2.28317
DEBUG cell=0 t=0.199523→0.199558 step=0.000315424 V=-0.617026 u1=0.582551 u2=0.833639 u3=0 Iion=2.28319
PIMPLE: iteration 1
DICPCG:  Solving for Vm, Initial residual = 7.30798e-06, Final residual = 7.02427e-16, No Iterations 4
PIMPLE: iteration 2
DICPCG:  Solving for Vm, Initial residual = 7.18691e-16, Final residual = 7.18691e-16, No Iterations 0
ExecutionTime = 3364.17 s  ClockTime = 3389 s

Time = 0.199593

DEBUG cell=0 t=0.199558→0.199593 step=3.50471e-05 V=-0.617035 u1=0.582551 u2=0.833639 u3=0 Iion=2.28319
DEBUG cell=0 t=0.199558→0.199593 step=0.000315424 V=-0.617035 u1=0.582577 u2=0.833615 u3=0 Iion=2.28321
PIMPLE: iteration 1
DICPCG:  Solving for Vm, Initial residual = 7.30777e-06, Final residual = 7.02407e-16, No Iterations 4
PIMPLE: iteration 2
DICPCG:  Solving for Vm, Initial residual = 7.18542e-16, Final residual = 7.18542e-16, No Iterations 0
ExecutionTime = 3364.73 s  ClockTime = 3389 s

Time = 0.199628

DEBUG cell=0 t=0.199593→0.199628 step=3.50471e-05 V=-0.617044 u1=0.582577 u2=0.833615 u3=0 Iion=2.28321
DEBUG cell=0 t=0.199593→0.199628 step=0.000315424 V=-0.617044 u1=0.582603 u2=0.833591 u3=0 Iion=2.28323
PIMPLE: iteration 1
DICPCG:  Solving for Vm, Initial residual = 7.30756e-06, Final residual = 7.02386e-16, No Iterations 4
PIMPLE: iteration 2
DICPCG:  Solving for Vm, Initial residual = 7.18673e-16, Final residual = 7.18673e-16, No Iterations 0
ExecutionTime = 3365.29 s  ClockTime = 3390 s

Time = 0.199663

DEBUG cell=0 t=0.199628→0.199663 step=3.50471e-05 V=-0.617053 u1=0.582603 u2=0.833591 u3=0 Iion=2.28323
DEBUG cell=0 t=0.199628→0.199663 step=0.000315424 V=-0.617053 u1=0.582629 u2=0.833566 u3=0 Iion=2.28325
PIMPLE: iteration 1
DICPCG:  Solving for Vm, Initial residual = 7.30734e-06, Final residual = 7.02366e-16, No Iterations 4
PIMPLE: iteration 2
DICPCG:  Solving for Vm, Initial residual = 7.1859e-16, Final residual = 7.1859e-16, No Iterations 0
ExecutionTime = 3365.85 s  ClockTime = 3390 s

Time = 0.199698

DEBUG cell=0 t=0.199663→0.199698 step=3.50471e-05 V=-0.617062 u1=0.582629 u2=0.833566 u3=0 Iion=2.28325
DEBUG cell=0 t=0.199663→0.199698 step=0.000315424 V=-0.617062 u1=0.582655 u2=0.833542 u3=0 Iion=2.28326
PIMPLE: iteration 1
DICPCG:  Solving for Vm, Initial residual = 7.30713e-06, Final residual = 7.02345e-16, No Iterations 4
PIMPLE: iteration 2
DICPCG:  Solving for Vm, Initial residual = 7.18589e-16, Final residual = 7.18589e-16, No Iterations 0
ExecutionTime = 3366.4 s  ClockTime = 3391 s

Time = 0.199733

DEBUG cell=0 t=0.199698→0.199733 step=3.50471e-05 V=-0.617071 u1=0.582655 u2=0.833542 u3=0 Iion=2.28326
DEBUG cell=0 t=0.199698→0.199733 step=0.000315424 V=-0.617071 u1=0.582681 u2=0.833518 u3=0 Iion=2.28328
PIMPLE: iteration 1
DICPCG:  Solving for Vm, Initial residual = 7.30692e-06, Final residual = 7.02325e-16, No Iterations 4
PIMPLE: iteration 2
DICPCG:  Solving for Vm, Initial residual = 7.18529e-16, Final residual = 7.18529e-16, No Iterations 0
ExecutionTime = 3366.94 s  ClockTime = 3392 s

Time = 0.199768

DEBUG cell=0 t=0.199733→0.199768 step=3.50471e-05 V=-0.61708 u1=0.582681 u2=0.833518 u3=0 Iion=2.28328
DEBUG cell=0 t=0.199733→0.199768 step=0.000315424 V=-0.61708 u1=0.582707 u2=0.833493 u3=0 Iion=2.2833
PIMPLE: iteration 1
DICPCG:  Solving for Vm, Initial residual = 7.3067e-06, Final residual = 7.02304e-16, No Iterations 4
PIMPLE: iteration 2
DICPCG:  Solving for Vm, Initial residual = 7.18599e-16, Final residual = 7.18599e-16, No Iterations 0
ExecutionTime = 3367.5 s  ClockTime = 3392 s

Time = 0.199804

DEBUG cell=0 t=0.199768→0.199804 step=3.50471e-05 V=-0.617089 u1=0.582707 u2=0.833493 u3=0 Iion=2.2833
DEBUG cell=0 t=0.199768→0.199804 step=0.000315424 V=-0.617089 u1=0.582733 u2=0.833469 u3=0 Iion=2.28332
PIMPLE: iteration 1
DICPCG:  Solving for Vm, Initial residual = 7.30649e-06, Final residual = 7.02284e-16, No Iterations 4
PIMPLE: iteration 2
DICPCG:  Solving for Vm, Initial residual = 7.18486e-16, Final residual = 7.18486e-16, No Iterations 0
ExecutionTime = 3368.05 s  ClockTime = 3393 s

Time = 0.199839

DEBUG cell=0 t=0.199804→0.199839 step=3.50471e-05 V=-0.617098 u1=0.582733 u2=0.833469 u3=0 Iion=2.28332
DEBUG cell=0 t=0.199804→0.199839 step=0.000315424 V=-0.617098 u1=0.582759 u2=0.833445 u3=0 Iion=2.28334
PIMPLE: iteration 1
DICPCG:  Solving for Vm, Initial residual = 7.30628e-06, Final residual = 7.02263e-16, No Iterations 4
PIMPLE: iteration 2
DICPCG:  Solving for Vm, Initial residual = 7.18632e-16, Final residual = 7.18632e-16, No Iterations 0
ExecutionTime = 3368.6 s  ClockTime = 3393 s

Time = 0.199874

DEBUG cell=0 t=0.199839→0.199874 step=3.50471e-05 V=-0.617107 u1=0.582759 u2=0.833445 u3=0 Iion=2.28334
DEBUG cell=0 t=0.199839→0.199874 step=0.000315424 V=-0.617107 u1=0.582785 u2=0.83342 u3=0 Iion=2.28336
PIMPLE: iteration 1
DICPCG:  Solving for Vm, Initial residual = 7.30606e-06, Final residual = 7.02243e-16, No Iterations 4
PIMPLE: iteration 2
DICPCG:  Solving for Vm, Initial residual = 7.18437e-16, Final residual = 7.18437e-16, No Iterations 0
ExecutionTime = 3369.15 s  ClockTime = 3394 s

Time = 0.199909

DEBUG cell=0 t=0.199874→0.199909 step=3.50471e-05 V=-0.617116 u1=0.582785 u2=0.83342 u3=0 Iion=2.28336
DEBUG cell=0 t=0.199874→0.199909 step=0.000315424 V=-0.617116 u1=0.582811 u2=0.833396 u3=0 Iion=2.28337
PIMPLE: iteration 1
DICPCG:  Solving for Vm, Initial residual = 7.30585e-06, Final residual = 7.02222e-16, No Iterations 4
PIMPLE: iteration 2
DICPCG:  Solving for Vm, Initial residual = 7.18461e-16, Final residual = 7.18461e-16, No Iterations 0
ExecutionTime = 3369.7 s  ClockTime = 3394 s

Time = 0.199944

DEBUG cell=0 t=0.199909→0.199944 step=3.50471e-05 V=-0.617125 u1=0.582811 u2=0.833396 u3=0 Iion=2.28337
DEBUG cell=0 t=0.199909→0.199944 step=0.000315424 V=-0.617125 u1=0.582837 u2=0.833371 u3=0 Iion=2.28339
PIMPLE: iteration 1
DICPCG:  Solving for Vm, Initial residual = 7.30564e-06, Final residual = 7.02202e-16, No Iterations 4
PIMPLE: iteration 2
DICPCG:  Solving for Vm, Initial residual = 7.18446e-16, Final residual = 7.18446e-16, No Iterations 0
ExecutionTime = 3370.26 s  ClockTime = 3395 s

Time = 0.199979

DEBUG cell=0 t=0.199944→0.199979 step=3.50471e-05 V=-0.617134 u1=0.582837 u2=0.833371 u3=0 Iion=2.28339
DEBUG cell=0 t=0.199944→0.199979 step=0.000315424 V=-0.617134 u1=0.582863 u2=0.833347 u3=0 Iion=2.28341
PIMPLE: iteration 1
DICPCG:  Solving for Vm, Initial residual = 7.30542e-06, Final residual = 7.02181e-16, No Iterations 4
PIMPLE: iteration 2
DICPCG:  Solving for Vm, Initial residual = 7.18385e-16, Final residual = 7.18385e-16, No Iterations 0
ExecutionTime = 3370.82 s  ClockTime = 3395 s

Time = 0.200014

DEBUG cell=0 t=0.199979→0.200014 step=3.50471e-05 V=-0.617143 u1=0.582863 u2=0.833347 u3=0 Iion=2.28341
DEBUG cell=0 t=0.199979→0.200014 step=0.000315424 V=-0.617143 u1=0.582889 u2=0.833323 u3=0 Iion=2.28343
PIMPLE: iteration 1
DICPCG:  Solving for Vm, Initial residual = 7.30521e-06, Final residual = 7.02161e-16, No Iterations 4
PIMPLE: iteration 2
DICPCG:  Solving for Vm, Initial residual = 7.18429e-16, Final residual = 7.18429e-16, No Iterations 0
Running postProcess via tmanufacturedFDA.

Simulation summary:
-------------------
Number of cells (N)   = 160
Solver type           = Implicit
Grid spacing (dx)     = 0.00625
Time step (dt)        = 3.50471e-05
Number of steps       = 5707
Final simulation time = 0.200014
-------------------

Manufactured-solution error summary (t = 0.200014):
-------------------------------------------------
Field     L1-error       L2-error       Linf-error
Vm     1.17905e-05   1.61541e-05   4.60278e-05
u1     9.43791e-07   1.32222e-06   4.88487e-06
u2     4.11342e-07   5.66762e-07   1.72569e-06
-------------------------------------------------

ExecutionTime = 3371.61 s  ClockTime = 3396 s


End

Finalising parallel run
