/*---------------------------------------------------------------------------*\
| =========                 |                                                 |
| \\      /  F ield         | OpenFOAM: The Open Source CFD Toolbox           |
|  \\    /   O peration     | Version:  2412                                  |
|   \\  /    A nd           | Website:  www.openfoam.com                      |
|    \\/     M anipulation  |                                                 |
\*---------------------------------------------------------------------------*/
Build  : _8dbc61e11c-20241220 OPENFOAM=2412 version=v2412
Arch   : "LSB;label=32;scalar=64"
Exec   : cardiacFoam -parallel
Date   : Mar 19 2026
Time   : 20:07:09
Host   : macbook
PID    : 86950
I/O    : uncollated
Case   : /Users/simaocastro/cardiacFoamv2/tutorials/manufacturedFDA
nProcs : 6
Hosts  :
(
    (macbook 6)
)
Pstream initialized with:
    floatTransfer      : false
    maxCommsSize       : 0
    nProcsSimpleSum    : 0
    nonBlockingExchange: 0 (tuning: 0)
    exchange algorithm : 0
    commsType          : nonBlocking
    polling iterations : 0
trapFpe: Floating point exception trapping enabled (FOAM_SIGFPE).
fileModificationChecking : Monitoring run-time modified files using timeStampMaster (fileModificationSkew 5, maxFileModificationPolls 20)
allowSystemOperations : Allowing user-supplied system call operations

// * * * * * * * * * * * * * * * * * * * * * * * * * * * * * * * * * * * * * //
Create time

Selecting physicsModel electroModel

Selecting electroModel monoDomainElectro

conductivity not found on disk, using value from "/Users/simaocastro/cardiacFoamv2/tutorials/manufacturedFDA/processor0/../constant/electroProperties/monoDomainElectroCoeffs"

conductivity tensor (cell 0): (0.111453 0 0 0 0.121585 0 0 0 0.0303964)
--> FOAM Warning : 
    From Foam::electroModels::monoDomainElectro::monoDomainElectro(const word &, Time &, const word &)
    in file monoDomainElectro/monoDomainElectro.C at line 322
    Stimulus box index 0 does not contain any mesh cells.
---------------------------------------------
Stimulus source dictionary: monodomainStimulus
3D mesh detected — stimulus parameters:
Stimulus boxes: 1
Number of cells in stimulus region: 0
Stimulus duration list: 1(0)
Stimulus start time(s): 1(0)
Stimulus intensity list: 1(0)
---------------------------------------------
Surface-to-volume ratio chi = chi [0 -1 0 0 0 0 0] 3
Membrane capacitance Cm = Cm [-1 -4 4 0 0 2 0] 2

Using pre/post processor tmanufacturedFDA for ionic model tmanufacturedFDA.
Running preProcess with fields 3(u1 u2 u3).
Selecting ecgModel pseudoECGElectro
ECG conductivity source: monodomain conductivity field

ECG electrodes (5):
  E1  @  (-0.5 0.5 0.5)
  E2  @  (1.5 0.5 0.5)
  E3  @  (1.2 0.23 0.61)
  E4  @  (1.35 0.74 0.28)
  E5  @  (1.55 0.41 0.83)

Enabled manufactured pseudo-ECG references: qRef=96, qChecks=(6 12 24 48), dimension=3.
Time = 0.000560538

Solving the mono-domain equation for Vm using an implicit approach
DEBUG cell=0 t=0→0.000560538 step=0.000560538 V=0.344784 u1=1.34478 u2=1 u3=0 Iion=0
Selecting ODE solver RKF45
DEBUG cell=0 t=0→0.000560538 step=0.00504484 V=0.344784 u1=1.34544 u2=0.99944 u3=0 Iion=-1.33301

PIMPLE: no residual control data found. Calculations will employ 2 corrector loops

PIMPLE: iteration 1
DICPCG:  Solving for Vm, Initial residual = 0.000140993, Final residual = 5.30675e-17, No Iterations 6
PIMPLE: iteration 2
DICPCG:  Solving for Vm, Initial residual = 1.10108e-16, Final residual = 1.10108e-16, No Iterations 0
ExecutionTime = 0.14 s  ClockTime = 0 s

Time = 0.00112108

DEBUG cell=0 t=0.000560538→0.00112108 step=0.000560538 V=0.344881 u1=1.34544 u2=0.99944 u3=0 Iion=-1.33301
DEBUG cell=0 t=0.000560538→0.00112108 step=0.00504484 V=0.344881 u1=1.3461 u2=0.99888 u3=0 Iion=-1.33319
PIMPLE: iteration 1
DICPCG:  Solving for Vm, Initial residual = 0.000140927, Final residual = 4.64467e-16, No Iterations 5
PIMPLE: iteration 2
DICPCG:  Solving for Vm, Initial residual = 4.79617e-16, Final residual = 4.79617e-16, No Iterations 0
ExecutionTime = 0.16 s  ClockTime = 0 s

Time = 0.00168161

DEBUG cell=0 t=0.00112108→0.00168161 step=0.000560538 V=0.344979 u1=1.3461 u2=0.99888 u3=0 Iion=-1.33319
DEBUG cell=0 t=0.00112108→0.00168161 step=0.00504484 V=0.344979 u1=1.34676 u2=0.998321 u3=0 Iion=-1.33337
PIMPLE: iteration 1
DICPCG:  Solving for Vm, Initial residual = 0.000140853, Final residual = 4.64223e-16, No Iterations 5
PIMPLE: iteration 2
DICPCG:  Solving for Vm, Initial residual = 4.78527e-16, Final residual = 4.78527e-16, No Iterations 0
ExecutionTime = 0.17 s  ClockTime = 0 s

Time = 0.00224215

DEBUG cell=0 t=0.00168161→0.00224215 step=0.000560538 V=0.345076 u1=1.34676 u2=0.998321 u3=0 Iion=-1.33337
DEBUG cell=0 t=0.00168161→0.00224215 step=0.00504484 V=0.345076 u1=1.34741 u2=0.997763 u3=0 Iion=-1.33355
PIMPLE: iteration 1
DICPCG:  Solving for Vm, Initial residual = 0.000140776, Final residual = 4.6397e-16, No Iterations 5
PIMPLE: iteration 2
DICPCG:  Solving for Vm, Initial residual = 4.78437e-16, Final residual = 4.78437e-16, No Iterations 0
ExecutionTime = 0.18 s  ClockTime = 0 s

Time = 0.00280269

DEBUG cell=0 t=0.00224215→0.00280269 step=0.000560538 V=0.345173 u1=1.34741 u2=0.997763 u3=0 Iion=-1.33355
DEBUG cell=0 t=0.00224215→0.00280269 step=0.00504484 V=0.345173 u1=1.34807 u2=0.997205 u3=0 Iion=-1.33374
PIMPLE: iteration 1
DICPCG:  Solving for Vm, Initial residual = 0.000140699, Final residual = 4.63714e-16, No Iterations 5
PIMPLE: iteration 2
DICPCG:  Solving for Vm, Initial residual = 4.78914e-16, Final residual = 4.78914e-16, No Iterations 0
ExecutionTime = 0.19 s  ClockTime = 0 s

Time = 0.00336323

DEBUG cell=0 t=0.00280269→0.00336323 step=0.000560538 V=0.34527 u1=1.34807 u2=0.997205 u3=0 Iion=-1.33374
DEBUG cell=0 t=0.00280269→0.00336323 step=0.00504484 V=0.34527 u1=1.34873 u2=0.996648 u3=0 Iion=-1.33392
PIMPLE: iteration 1
DICPCG:  Solving for Vm, Initial residual = 0.000140621, Final residual = 4.63457e-16, No Iterations 5
PIMPLE: iteration 2
DICPCG:  Solving for Vm, Initial residual = 4.78057e-16, Final residual = 4.78057e-16, No Iterations 0
ExecutionTime = 0.19 s  ClockTime = 0 s

Time = 0.00392377

DEBUG cell=0 t=0.00336323→0.00392377 step=0.000560538 V=0.345367 u1=1.34873 u2=0.996648 u3=0 Iion=-1.33392
DEBUG cell=0 t=0.00336323→0.00392377 step=0.00504484 V=0.345367 u1=1.34938 u2=0.996091 u3=0 Iion=-1.3341
PIMPLE: iteration 1
DICPCG:  Solving for Vm, Initial residual = 0.000140543, Final residual = 4.632e-16, No Iterations 5
PIMPLE: iteration 2
DICPCG:  Solving for Vm, Initial residual = 4.77115e-16, Final residual = 4.77115e-16, No Iterations 0
ExecutionTime = 0.2 s  ClockTime = 0 s

Time = 0.0044843

DEBUG cell=0 t=0.00392377→0.0044843 step=0.000560538 V=0.345464 u1=1.34938 u2=0.996091 u3=0 Iion=-1.3341
DEBUG cell=0 t=0.00392377→0.0044843 step=0.00504484 V=0.345464 u1=1.35004 u2=0.995535 u3=0 Iion=-1.33428
PIMPLE: iteration 1
DICPCG:  Solving for Vm, Initial residual = 0.000140465, Final residual = 4.62944e-16, No Iterations 5
PIMPLE: iteration 2
DICPCG:  Solving for Vm, Initial residual = 4.78366e-16, Final residual = 4.78366e-16, No Iterations 0
ExecutionTime = 0.21 s  ClockTime = 0 s

Time = 0.00504484

DEBUG cell=0 t=0.0044843→0.00504484 step=0.000560538 V=0.345561 u1=1.35004 u2=0.995535 u3=0 Iion=-1.33428
DEBUG cell=0 t=0.0044843→0.00504484 step=0.00504484 V=0.345561 u1=1.3507 u2=0.99498 u3=0 Iion=-1.33447
PIMPLE: iteration 1
DICPCG:  Solving for Vm, Initial residual = 0.000140387, Final residual = 4.62687e-16, No Iterations 5
PIMPLE: iteration 2
DICPCG:  Solving for Vm, Initial residual = 4.77094e-16, Final residual = 4.77094e-16, No Iterations 0
ExecutionTime = 0.21 s  ClockTime = 0 s

Time = 0.00560538

DEBUG cell=0 t=0.00504484→0.00560538 step=0.000560538 V=0.345658 u1=1.3507 u2=0.99498 u3=0 Iion=-1.33447
DEBUG cell=0 t=0.00504484→0.00560538 step=0.00504484 V=0.345658 u1=1.35136 u2=0.994425 u3=0 Iion=-1.33465
PIMPLE: iteration 1
DICPCG:  Solving for Vm, Initial residual = 0.00014031, Final residual = 4.62431e-16, No Iterations 5
PIMPLE: iteration 2
DICPCG:  Solving for Vm, Initial residual = 4.77423e-16, Final residual = 4.77423e-16, No Iterations 0
ExecutionTime = 0.22 s  ClockTime = 0 s

Time = 0.00616592

DEBUG cell=0 t=0.00560538→0.00616592 step=0.000560538 V=0.345755 u1=1.35136 u2=0.994425 u3=0 Iion=-1.33465
DEBUG cell=0 t=0.00560538→0.00616592 step=0.00504484 V=0.345755 u1=1.35201 u2=0.993871 u3=0 Iion=-1.33483
PIMPLE: iteration 1
DICPCG:  Solving for Vm, Initial residual = 0.000140232, Final residual = 4.62176e-16, No Iterations 5
PIMPLE: iteration 2
DICPCG:  Solving for Vm, Initial residual = 4.76693e-16, Final residual = 4.76693e-16, No Iterations 0
ExecutionTime = 0.23 s  ClockTime = 0 s

Time = 0.00672646

DEBUG cell=0 t=0.00616592→0.00672646 step=0.000560538 V=0.345852 u1=1.35201 u2=0.993871 u3=0 Iion=-1.33483
DEBUG cell=0 t=0.00616592→0.00672646 step=0.00504484 V=0.345852 u1=1.35267 u2=0.993318 u3=0 Iion=-1.33502
PIMPLE: iteration 1
DICPCG:  Solving for Vm, Initial residual = 0.000140155, Final residual = 4.6192e-16, No Iterations 5
PIMPLE: iteration 2
DICPCG:  Solving for Vm, Initial residual = 4.76011e-16, Final residual = 4.76011e-16, No Iterations 0
ExecutionTime = 0.24 s  ClockTime = 0 s

Time = 0.00728699

DEBUG cell=0 t=0.00672646→0.00728699 step=0.000560538 V=0.345949 u1=1.35267 u2=0.993318 u3=0 Iion=-1.33502
DEBUG cell=0 t=0.00672646→0.00728699 step=0.00504484 V=0.345949 u1=1.35333 u2=0.992765 u3=0 Iion=-1.3352
PIMPLE: iteration 1
DICPCG:  Solving for Vm, Initial residual = 0.000140077, Final residual = 4.61665e-16, No Iterations 5
PIMPLE: iteration 2
DICPCG:  Solving for Vm, Initial residual = 4.76033e-16, Final residual = 4.76033e-16, No Iterations 0
ExecutionTime = 0.25 s  ClockTime = 0 s

Time = 0.00784753

DEBUG cell=0 t=0.00728699→0.00784753 step=0.000560538 V=0.346046 u1=1.35333 u2=0.992765 u3=0 Iion=-1.3352
DEBUG cell=0 t=0.00728699→0.00784753 step=0.00504484 V=0.346046 u1=1.35398 u2=0.992213 u3=0 Iion=-1.33538
PIMPLE: iteration 1
DICPCG:  Solving for Vm, Initial residual = 0.00014, Final residual = 4.6141e-16, No Iterations 5
PIMPLE: iteration 2
DICPCG:  Solving for Vm, Initial residual = 4.76429e-16, Final residual = 4.76429e-16, No Iterations 0
ExecutionTime = 0.25 s  ClockTime = 0 s

Time = 0.00840807

DEBUG cell=0 t=0.00784753→0.00840807 step=0.000560538 V=0.346143 u1=1.35398 u2=0.992213 u3=0 Iion=-1.33538
DEBUG cell=0 t=0.00784753→0.00840807 step=0.00504484 V=0.346143 u1=1.35464 u2=0.991662 u3=0 Iion=-1.33556
PIMPLE: iteration 1
DICPCG:  Solving for Vm, Initial residual = 0.000139923, Final residual = 4.61155e-16, No Iterations 5
PIMPLE: iteration 2
DICPCG:  Solving for Vm, Initial residual = 4.76224e-16, Final residual = 4.76224e-16, No Iterations 0
ExecutionTime = 0.27 s  ClockTime = 0 s

Time = 0.00896861

DEBUG cell=0 t=0.00840807→0.00896861 step=0.000560538 V=0.34624 u1=1.35464 u2=0.991662 u3=0 Iion=-1.33556
DEBUG cell=0 t=0.00840807→0.00896861 step=0.00504484 V=0.34624 u1=1.3553 u2=0.991111 u3=0 Iion=-1.33575
PIMPLE: iteration 1
DICPCG:  Solving for Vm, Initial residual = 0.000139846, Final residual = 4.60901e-16, No Iterations 5
PIMPLE: iteration 2
DICPCG:  Solving for Vm, Initial residual = 4.75543e-16, Final residual = 4.75543e-16, No Iterations 0
ExecutionTime = 0.28 s  ClockTime = 0 s

Time = 0.00952915

DEBUG cell=0 t=0.00896861→0.00952915 step=0.000560538 V=0.346337 u1=1.3553 u2=0.991111 u3=0 Iion=-1.33575
DEBUG cell=0 t=0.00896861→0.00952915 step=0.00504484 V=0.346337 u1=1.35595 u2=0.99056 u3=0 Iion=-1.33593
PIMPLE: iteration 1
DICPCG:  Solving for Vm, Initial residual = 0.000139769, Final residual = 4.60647e-16, No Iterations 5
PIMPLE: iteration 2
DICPCG:  Solving for Vm, Initial residual = 4.7557e-16, Final residual = 4.7557e-16, No Iterations 0
ExecutionTime = 0.28 s  ClockTime = 0 s

Time = 0.0100897

DEBUG cell=0 t=0.00952915→0.0100897 step=0.000560538 V=0.346434 u1=1.35595 u2=0.99056 u3=0 Iion=-1.33593
DEBUG cell=0 t=0.00952915→0.0100897 step=0.00504484 V=0.346434 u1=1.35661 u2=0.990011 u3=0 Iion=-1.33611
PIMPLE: iteration 1
DICPCG:  Solving for Vm, Initial residual = 0.000139692, Final residual = 4.60393e-16, No Iterations 5
PIMPLE: iteration 2
DICPCG:  Solving for Vm, Initial residual = 4.75231e-16, Final residual = 4.75231e-16, No Iterations 0
ExecutionTime = 0.29 s  ClockTime = 0 s

Time = 0.0106502

DEBUG cell=0 t=0.0100897→0.0106502 step=0.000560538 V=0.346531 u1=1.35661 u2=0.990011 u3=0 Iion=-1.33611
DEBUG cell=0 t=0.0100897→0.0106502 step=0.00504484 V=0.346531 u1=1.35727 u2=0.989461 u3=0 Iion=-1.3363
PIMPLE: iteration 1
DICPCG:  Solving for Vm, Initial residual = 0.000139615, Final residual = 4.6014e-16, No Iterations 5
PIMPLE: iteration 2
DICPCG:  Solving for Vm, Initial residual = 4.74656e-16, Final residual = 4.74656e-16, No Iterations 0
ExecutionTime = 0.3 s  ClockTime = 0 s

Time = 0.0112108

DEBUG cell=0 t=0.0106502→0.0112108 step=0.000560538 V=0.346627 u1=1.35727 u2=0.989461 u3=0 Iion=-1.3363
DEBUG cell=0 t=0.0106502→0.0112108 step=0.00504484 V=0.346627 u1=1.35792 u2=0.988913 u3=0 Iion=-1.33648
PIMPLE: iteration 1
DICPCG:  Solving for Vm, Initial residual = 0.000139538, Final residual = 4.59887e-16, No Iterations 5
PIMPLE: iteration 2
DICPCG:  Solving for Vm, Initial residual = 4.74973e-16, Final residual = 4.74973e-16, No Iterations 0
ExecutionTime = 0.31 s  ClockTime = 0 s

Time = 0.0117713

DEBUG cell=0 t=0.0112108→0.0117713 step=0.000560538 V=0.346724 u1=1.35792 u2=0.988913 u3=0 Iion=-1.33648
DEBUG cell=0 t=0.0112108→0.0117713 step=0.00504484 V=0.346724 u1=1.35858 u2=0.988365 u3=0 Iion=-1.33666
PIMPLE: iteration 1
DICPCG:  Solving for Vm, Initial residual = 0.000139461, Final residual = 4.59634e-16, No Iterations 5
PIMPLE: iteration 2
DICPCG:  Solving for Vm, Initial residual = 4.737e-16, Final residual = 4.737e-16, No Iterations 0
ExecutionTime = 0.31 s  ClockTime = 0 s

Time = 0.0123318

DEBUG cell=0 t=0.0117713→0.0123318 step=0.000560538 V=0.346821 u1=1.35858 u2=0.988365 u3=0 Iion=-1.33666
DEBUG cell=0 t=0.0117713→0.0123318 step=0.00504484 V=0.346821 u1=1.35924 u2=0.987818 u3=0 Iion=-1.33684
PIMPLE: iteration 1
DICPCG:  Solving for Vm, Initial residual = 0.000139385, Final residual = 4.59381e-16, No Iterations 5
PIMPLE: iteration 2
DICPCG:  Solving for Vm, Initial residual = 4.74006e-16, Final residual = 4.74006e-16, No Iterations 0
ExecutionTime = 0.32 s  ClockTime = 0 s

Time = 0.0128924

DEBUG cell=0 t=0.0123318→0.0128924 step=0.000560538 V=0.346918 u1=1.35924 u2=0.987818 u3=0 Iion=-1.33684
DEBUG cell=0 t=0.0123318→0.0128924 step=0.00504484 V=0.346918 u1=1.35989 u2=0.987271 u3=0 Iion=-1.33703
PIMPLE: iteration 1
DICPCG:  Solving for Vm, Initial residual = 0.000139308, Final residual = 4.59129e-16, No Iterations 5
PIMPLE: iteration 2
DICPCG:  Solving for Vm, Initial residual = 4.73734e-16, Final residual = 4.73734e-16, No Iterations 0
ExecutionTime = 0.33 s  ClockTime = 0 s

Time = 0.0134529

DEBUG cell=0 t=0.0128924→0.0134529 step=0.000560538 V=0.347014 u1=1.35989 u2=0.987271 u3=0 Iion=-1.33703
DEBUG cell=0 t=0.0128924→0.0134529 step=0.00504484 V=0.347014 u1=1.36055 u2=0.986725 u3=0 Iion=-1.33721
PIMPLE: iteration 1
DICPCG:  Solving for Vm, Initial residual = 0.000139232, Final residual = 4.58877e-16, No Iterations 5
PIMPLE: iteration 2
DICPCG:  Solving for Vm, Initial residual = 4.74202e-16, Final residual = 4.74202e-16, No Iterations 0
ExecutionTime = 0.34 s  ClockTime = 0 s

Time = 0.0140134

DEBUG cell=0 t=0.0134529→0.0140134 step=0.000560538 V=0.347111 u1=1.36055 u2=0.986725 u3=0 Iion=-1.33721
DEBUG cell=0 t=0.0134529→0.0140134 step=0.00504484 V=0.347111 u1=1.36121 u2=0.98618 u3=0 Iion=-1.33739
PIMPLE: iteration 1
DICPCG:  Solving for Vm, Initial residual = 0.000139155, Final residual = 4.58625e-16, No Iterations 5
PIMPLE: iteration 2
DICPCG:  Solving for Vm, Initial residual = 4.7255e-16, Final residual = 4.7255e-16, No Iterations 0
ExecutionTime = 0.34 s  ClockTime = 0 s

Time = 0.014574

DEBUG cell=0 t=0.0140134→0.014574 step=0.000560538 V=0.347208 u1=1.36121 u2=0.98618 u3=0 Iion=-1.33739
DEBUG cell=0 t=0.0140134→0.014574 step=0.00504484 V=0.347208 u1=1.36186 u2=0.985635 u3=0 Iion=-1.33758
PIMPLE: iteration 1
DICPCG:  Solving for Vm, Initial residual = 0.000139079, Final residual = 4.58373e-16, No Iterations 5
PIMPLE: iteration 2
DICPCG:  Solving for Vm, Initial residual = 4.72645e-16, Final residual = 4.72645e-16, No Iterations 0
ExecutionTime = 0.35 s  ClockTime = 0 s

Time = 0.0151345

DEBUG cell=0 t=0.014574→0.0151345 step=0.000560538 V=0.347304 u1=1.36186 u2=0.985635 u3=0 Iion=-1.33758
DEBUG cell=0 t=0.014574→0.0151345 step=0.00504484 V=0.347304 u1=1.36252 u2=0.98509 u3=0 Iion=-1.33776
PIMPLE: iteration 1
DICPCG:  Solving for Vm, Initial residual = 0.000139003, Final residual = 4.58122e-16, No Iterations 5
PIMPLE: iteration 2
DICPCG:  Solving for Vm, Initial residual = 4.73386e-16, Final residual = 4.73386e-16, No Iterations 0
ExecutionTime = 0.36 s  ClockTime = 0 s

Time = 0.0156951

DEBUG cell=0 t=0.0151345→0.0156951 step=0.000560538 V=0.347401 u1=1.36252 u2=0.98509 u3=0 Iion=-1.33776
DEBUG cell=0 t=0.0151345→0.0156951 step=0.00504484 V=0.347401 u1=1.36318 u2=0.984547 u3=0 Iion=-1.33794
PIMPLE: iteration 1
DICPCG:  Solving for Vm, Initial residual = 0.000138927, Final residual = 4.57871e-16, No Iterations 5
PIMPLE: iteration 2
DICPCG:  Solving for Vm, Initial residual = 4.72833e-16, Final residual = 4.72833e-16, No Iterations 0
ExecutionTime = 0.36 s  ClockTime = 1 s

Time = 0.0162556

DEBUG cell=0 t=0.0156951→0.0162556 step=0.000560538 V=0.347497 u1=1.36318 u2=0.984547 u3=0 Iion=-1.33794
DEBUG cell=0 t=0.0156951→0.0162556 step=0.00504484 V=0.347497 u1=1.36383 u2=0.984004 u3=0 Iion=-1.33812
PIMPLE: iteration 1
DICPCG:  Solving for Vm, Initial residual = 0.000138851, Final residual = 4.5762e-16, No Iterations 5
PIMPLE: iteration 2
DICPCG:  Solving for Vm, Initial residual = 4.7186e-16, Final residual = 4.7186e-16, No Iterations 0
ExecutionTime = 0.38 s  ClockTime = 1 s

Time = 0.0168161

DEBUG cell=0 t=0.0162556→0.0168161 step=0.000560538 V=0.347594 u1=1.36383 u2=0.984004 u3=0 Iion=-1.33812
DEBUG cell=0 t=0.0162556→0.0168161 step=0.00504484 V=0.347594 u1=1.36449 u2=0.983461 u3=0 Iion=-1.33831
PIMPLE: iteration 1
DICPCG:  Solving for Vm, Initial residual = 0.000138775, Final residual = 4.5737e-16, No Iterations 5
PIMPLE: iteration 2
DICPCG:  Solving for Vm, Initial residual = 4.72206e-16, Final residual = 4.72206e-16, No Iterations 0
ExecutionTime = 0.39 s  ClockTime = 1 s

Time = 0.0173767

DEBUG cell=0 t=0.0168161→0.0173767 step=0.000560538 V=0.34769 u1=1.36449 u2=0.983461 u3=0 Iion=-1.33831
DEBUG cell=0 t=0.0168161→0.0173767 step=0.00504484 V=0.34769 u1=1.36514 u2=0.982919 u3=0 Iion=-1.33849
PIMPLE: iteration 1
DICPCG:  Solving for Vm, Initial residual = 0.000138699, Final residual = 4.5712e-16, No Iterations 5
PIMPLE: iteration 2
DICPCG:  Solving for Vm, Initial residual = 4.72389e-16, Final residual = 4.72389e-16, No Iterations 0
ExecutionTime = 0.4 s  ClockTime = 1 s

Time = 0.0179372

DEBUG cell=0 t=0.0173767→0.0179372 step=0.000560538 V=0.347787 u1=1.36514 u2=0.982919 u3=0 Iion=-1.33849
DEBUG cell=0 t=0.0173767→0.0179372 step=0.00504484 V=0.347787 u1=1.3658 u2=0.982378 u3=0 Iion=-1.33867
PIMPLE: iteration 1
DICPCG:  Solving for Vm, Initial residual = 0.000138623, Final residual = 4.5687e-16, No Iterations 5
PIMPLE: iteration 2
DICPCG:  Solving for Vm, Initial residual = 4.71049e-16, Final residual = 4.71049e-16, No Iterations 0
ExecutionTime = 0.4 s  ClockTime = 1 s

Time = 0.0184978

DEBUG cell=0 t=0.0179372→0.0184978 step=0.000560538 V=0.347883 u1=1.3658 u2=0.982378 u3=0 Iion=-1.33867
DEBUG cell=0 t=0.0179372→0.0184978 step=0.00504484 V=0.347883 u1=1.36646 u2=0.981837 u3=0 Iion=-1.33886
PIMPLE: iteration 1
DICPCG:  Solving for Vm, Initial residual = 0.000138547, Final residual = 4.5662e-16, No Iterations 5
PIMPLE: iteration 2
DICPCG:  Solving for Vm, Initial residual = 4.71995e-16, Final residual = 4.71995e-16, No Iterations 0
ExecutionTime = 0.41 s  ClockTime = 1 s

Time = 0.0190583

DEBUG cell=0 t=0.0184978→0.0190583 step=0.000560538 V=0.34798 u1=1.36646 u2=0.981837 u3=0 Iion=-1.33886
DEBUG cell=0 t=0.0184978→0.0190583 step=0.00504484 V=0.34798 u1=1.36711 u2=0.981297 u3=0 Iion=-1.33904
PIMPLE: iteration 1
DICPCG:  Solving for Vm, Initial residual = 0.000138472, Final residual = 4.56371e-16, No Iterations 5
PIMPLE: iteration 2
DICPCG:  Solving for Vm, Initial residual = 4.71649e-16, Final residual = 4.71649e-16, No Iterations 0
ExecutionTime = 0.42 s  ClockTime = 1 s

Time = 0.0196188

DEBUG cell=0 t=0.0190583→0.0196188 step=0.000560538 V=0.348076 u1=1.36711 u2=0.981297 u3=0 Iion=-1.33904
DEBUG cell=0 t=0.0190583→0.0196188 step=0.00504484 V=0.348076 u1=1.36777 u2=0.980758 u3=0 Iion=-1.33922
PIMPLE: iteration 1
DICPCG:  Solving for Vm, Initial residual = 0.000138396, Final residual = 4.56122e-16, No Iterations 5
PIMPLE: iteration 2
DICPCG:  Solving for Vm, Initial residual = 4.71629e-16, Final residual = 4.71629e-16, No Iterations 0
ExecutionTime = 0.42 s  ClockTime = 1 s

Time = 0.0201794

DEBUG cell=0 t=0.0196188→0.0201794 step=0.000560538 V=0.348172 u1=1.36777 u2=0.980758 u3=0 Iion=-1.33922
DEBUG cell=0 t=0.0196188→0.0201794 step=0.00504484 V=0.348172 u1=1.36843 u2=0.980219 u3=0 Iion=-1.3394
PIMPLE: iteration 1
DICPCG:  Solving for Vm, Initial residual = 0.000138321, Final residual = 4.55873e-16, No Iterations 5
PIMPLE: iteration 2
DICPCG:  Solving for Vm, Initial residual = 4.70525e-16, Final residual = 4.70525e-16, No Iterations 0
ExecutionTime = 0.43 s  ClockTime = 1 s

Time = 0.0207399

DEBUG cell=0 t=0.0201794→0.0207399 step=0.000560538 V=0.348269 u1=1.36843 u2=0.980219 u3=0 Iion=-1.3394
DEBUG cell=0 t=0.0201794→0.0207399 step=0.00504484 V=0.348269 u1=1.36908 u2=0.979681 u3=0 Iion=-1.33959
PIMPLE: iteration 1
DICPCG:  Solving for Vm, Initial residual = 0.000138245, Final residual = 4.55625e-16, No Iterations 5
PIMPLE: iteration 2
DICPCG:  Solving for Vm, Initial residual = 4.70548e-16, Final residual = 4.70548e-16, No Iterations 0
ExecutionTime = 0.44 s  ClockTime = 1 s

Time = 0.0213004

DEBUG cell=0 t=0.0207399→0.0213004 step=0.000560538 V=0.348365 u1=1.36908 u2=0.979681 u3=0 Iion=-1.33959
DEBUG cell=0 t=0.0207399→0.0213004 step=0.00504484 V=0.348365 u1=1.36974 u2=0.979143 u3=0 Iion=-1.33977
PIMPLE: iteration 1
DICPCG:  Solving for Vm, Initial residual = 0.00013817, Final residual = 4.55376e-16, No Iterations 5
PIMPLE: iteration 2
DICPCG:  Solving for Vm, Initial residual = 4.70835e-16, Final residual = 4.70835e-16, No Iterations 0
ExecutionTime = 0.45 s  ClockTime = 1 s

Time = 0.021861

DEBUG cell=0 t=0.0213004→0.021861 step=0.000560538 V=0.348461 u1=1.36974 u2=0.979143 u3=0 Iion=-1.33977
DEBUG cell=0 t=0.0213004→0.021861 step=0.00504484 V=0.348461 u1=1.37039 u2=0.978606 u3=0 Iion=-1.33995
PIMPLE: iteration 1
DICPCG:  Solving for Vm, Initial residual = 0.000138095, Final residual = 4.55128e-16, No Iterations 5
PIMPLE: iteration 2
DICPCG:  Solving for Vm, Initial residual = 4.70054e-16, Final residual = 4.70054e-16, No Iterations 0
ExecutionTime = 0.45 s  ClockTime = 1 s

Time = 0.0224215

DEBUG cell=0 t=0.021861→0.0224215 step=0.000560538 V=0.348558 u1=1.37039 u2=0.978606 u3=0 Iion=-1.33995
DEBUG cell=0 t=0.021861→0.0224215 step=0.00504484 V=0.348558 u1=1.37105 u2=0.978069 u3=0 Iion=-1.34014
PIMPLE: iteration 1
DICPCG:  Solving for Vm, Initial residual = 0.00013802, Final residual = 4.54881e-16, No Iterations 5
PIMPLE: iteration 2
DICPCG:  Solving for Vm, Initial residual = 4.69488e-16, Final residual = 4.69488e-16, No Iterations 0
ExecutionTime = 0.46 s  ClockTime = 1 s

Time = 0.0229821

DEBUG cell=0 t=0.0224215→0.0229821 step=0.000560538 V=0.348654 u1=1.37105 u2=0.978069 u3=0 Iion=-1.34014
DEBUG cell=0 t=0.0224215→0.0229821 step=0.00504484 V=0.348654 u1=1.37171 u2=0.977533 u3=0 Iion=-1.34032
PIMPLE: iteration 1
DICPCG:  Solving for Vm, Initial residual = 0.000137945, Final residual = 4.54633e-16, No Iterations 5
PIMPLE: iteration 2
DICPCG:  Solving for Vm, Initial residual = 4.70736e-16, Final residual = 4.70736e-16, No Iterations 0
ExecutionTime = 0.47 s  ClockTime = 1 s

Time = 0.0235426

DEBUG cell=0 t=0.0229821→0.0235426 step=0.000560538 V=0.34875 u1=1.37171 u2=0.977533 u3=0 Iion=-1.34032
DEBUG cell=0 t=0.0229821→0.0235426 step=0.00504484 V=0.34875 u1=1.37236 u2=0.976998 u3=0 Iion=-1.3405
PIMPLE: iteration 1
DICPCG:  Solving for Vm, Initial residual = 0.00013787, Final residual = 4.54386e-16, No Iterations 5
PIMPLE: iteration 2
DICPCG:  Solving for Vm, Initial residual = 4.68695e-16, Final residual = 4.68695e-16, No Iterations 0
ExecutionTime = 0.48 s  ClockTime = 1 s

Time = 0.0241031

DEBUG cell=0 t=0.0235426→0.0241031 step=0.000560538 V=0.348846 u1=1.37236 u2=0.976998 u3=0 Iion=-1.3405
DEBUG cell=0 t=0.0235426→0.0241031 step=0.00504484 V=0.348846 u1=1.37302 u2=0.976463 u3=0 Iion=-1.34068
PIMPLE: iteration 1
DICPCG:  Solving for Vm, Initial residual = 0.000137795, Final residual = 4.54139e-16, No Iterations 5
PIMPLE: iteration 2
DICPCG:  Solving for Vm, Initial residual = 4.69178e-16, Final residual = 4.69178e-16, No Iterations 0
ExecutionTime = 0.48 s  ClockTime = 1 s

Time = 0.0246637

DEBUG cell=0 t=0.0241031→0.0246637 step=0.000560538 V=0.348942 u1=1.37302 u2=0.976463 u3=0 Iion=-1.34068
DEBUG cell=0 t=0.0241031→0.0246637 step=0.00504484 V=0.348942 u1=1.37368 u2=0.975929 u3=0 Iion=-1.34087
PIMPLE: iteration 1
DICPCG:  Solving for Vm, Initial residual = 0.00013772, Final residual = 4.53893e-16, No Iterations 5
PIMPLE: iteration 2
DICPCG:  Solving for Vm, Initial residual = 4.69167e-16, Final residual = 4.69167e-16, No Iterations 0
ExecutionTime = 0.5 s  ClockTime = 1 s

Time = 0.0252242

DEBUG cell=0 t=0.0246637→0.0252242 step=0.000560538 V=0.349039 u1=1.37368 u2=0.975929 u3=0 Iion=-1.34087
DEBUG cell=0 t=0.0246637→0.0252242 step=0.00504484 V=0.349039 u1=1.37433 u2=0.975395 u3=0 Iion=-1.34105
PIMPLE: iteration 1
DICPCG:  Solving for Vm, Initial residual = 0.000137645, Final residual = 4.53646e-16, No Iterations 5
PIMPLE: iteration 2
DICPCG:  Solving for Vm, Initial residual = 4.6843e-16, Final residual = 4.6843e-16, No Iterations 0
ExecutionTime = 0.51 s  ClockTime = 1 s

Time = 0.0257847

DEBUG cell=0 t=0.0252242→0.0257847 step=0.000560538 V=0.349135 u1=1.37433 u2=0.975395 u3=0 Iion=-1.34105
DEBUG cell=0 t=0.0252242→0.0257847 step=0.00504484 V=0.349135 u1=1.37499 u2=0.974862 u3=0 Iion=-1.34123
PIMPLE: iteration 1
DICPCG:  Solving for Vm, Initial residual = 0.000137571, Final residual = 4.534e-16, No Iterations 5
PIMPLE: iteration 2
DICPCG:  Solving for Vm, Initial residual = 4.67961e-16, Final residual = 4.67961e-16, No Iterations 0
ExecutionTime = 0.51 s  ClockTime = 1 s

Time = 0.0263453

DEBUG cell=0 t=0.0257847→0.0263453 step=0.000560538 V=0.349231 u1=1.37499 u2=0.974862 u3=0 Iion=-1.34123
DEBUG cell=0 t=0.0257847→0.0263453 step=0.00504484 V=0.349231 u1=1.37564 u2=0.97433 u3=0 Iion=-1.34142
PIMPLE: iteration 1
DICPCG:  Solving for Vm, Initial residual = 0.000137496, Final residual = 4.53154e-16, No Iterations 5
PIMPLE: iteration 2
DICPCG:  Solving for Vm, Initial residual = 4.68508e-16, Final residual = 4.68508e-16, No Iterations 0
ExecutionTime = 0.52 s  ClockTime = 1 s

Time = 0.0269058

DEBUG cell=0 t=0.0263453→0.0269058 step=0.000560538 V=0.349327 u1=1.37564 u2=0.97433 u3=0 Iion=-1.34142
DEBUG cell=0 t=0.0263453→0.0269058 step=0.00504484 V=0.349327 u1=1.3763 u2=0.973798 u3=0 Iion=-1.3416
PIMPLE: iteration 1
DICPCG:  Solving for Vm, Initial residual = 0.000137422, Final residual = 4.52909e-16, No Iterations 5
PIMPLE: iteration 2
DICPCG:  Solving for Vm, Initial residual = 4.67714e-16, Final residual = 4.67714e-16, No Iterations 0
ExecutionTime = 0.53 s  ClockTime = 1 s

Time = 0.0274664

DEBUG cell=0 t=0.0269058→0.0274664 step=0.000560538 V=0.349423 u1=1.3763 u2=0.973798 u3=0 Iion=-1.3416
DEBUG cell=0 t=0.0269058→0.0274664 step=0.00504484 V=0.349423 u1=1.37696 u2=0.973267 u3=0 Iion=-1.34178
PIMPLE: iteration 1
DICPCG:  Solving for Vm, Initial residual = 0.000137347, Final residual = 4.52664e-16, No Iterations 5
PIMPLE: iteration 2
DICPCG:  Solving for Vm, Initial residual = 4.67113e-16, Final residual = 4.67113e-16, No Iterations 0
ExecutionTime = 0.54 s  ClockTime = 1 s

Time = 0.0280269

DEBUG cell=0 t=0.0274664→0.0280269 step=0.000560538 V=0.349519 u1=1.37696 u2=0.973267 u3=0 Iion=-1.34178
DEBUG cell=0 t=0.0274664→0.0280269 step=0.00504484 V=0.349519 u1=1.37761 u2=0.972736 u3=0 Iion=-1.34196
PIMPLE: iteration 1
DICPCG:  Solving for Vm, Initial residual = 0.000137273, Final residual = 4.52419e-16, No Iterations 5
PIMPLE: iteration 2
DICPCG:  Solving for Vm, Initial residual = 4.67846e-16, Final residual = 4.67846e-16, No Iterations 0
ExecutionTime = 0.54 s  ClockTime = 1 s

Time = 0.0285874

DEBUG cell=0 t=0.0280269→0.0285874 step=0.000560538 V=0.349615 u1=1.37761 u2=0.972736 u3=0 Iion=-1.34196
DEBUG cell=0 t=0.0280269→0.0285874 step=0.00504484 V=0.349615 u1=1.37827 u2=0.972206 u3=0 Iion=-1.34215
PIMPLE: iteration 1
DICPCG:  Solving for Vm, Initial residual = 0.000137199, Final residual = 4.52174e-16, No Iterations 5
PIMPLE: iteration 2
DICPCG:  Solving for Vm, Initial residual = 4.67805e-16, Final residual = 4.67805e-16, No Iterations 0
ExecutionTime = 0.55 s  ClockTime = 1 s

Time = 0.029148

DEBUG cell=0 t=0.0285874→0.029148 step=0.000560538 V=0.349711 u1=1.37827 u2=0.972206 u3=0 Iion=-1.34215
DEBUG cell=0 t=0.0285874→0.029148 step=0.00504484 V=0.349711 u1=1.37892 u2=0.971677 u3=0 Iion=-1.34233
PIMPLE: iteration 1
DICPCG:  Solving for Vm, Initial residual = 0.000137125, Final residual = 4.51929e-16, No Iterations 5
PIMPLE: iteration 2
DICPCG:  Solving for Vm, Initial residual = 4.67267e-16, Final residual = 4.67267e-16, No Iterations 0
ExecutionTime = 0.56 s  ClockTime = 1 s

Time = 0.0297085

DEBUG cell=0 t=0.029148→0.0297085 step=0.000560538 V=0.349807 u1=1.37892 u2=0.971677 u3=0 Iion=-1.34233
DEBUG cell=0 t=0.029148→0.0297085 step=0.00504484 V=0.349807 u1=1.37958 u2=0.971148 u3=0 Iion=-1.34251
PIMPLE: iteration 1
DICPCG:  Solving for Vm, Initial residual = 0.00013705, Final residual = 4.51685e-16, No Iterations 5
PIMPLE: iteration 2
DICPCG:  Solving for Vm, Initial residual = 4.65906e-16, Final residual = 4.65906e-16, No Iterations 0
ExecutionTime = 0.56 s  ClockTime = 1 s

Time = 0.0302691

DEBUG cell=0 t=0.0297085→0.0302691 step=0.000560538 V=0.349903 u1=1.37958 u2=0.971148 u3=0 Iion=-1.34251
DEBUG cell=0 t=0.0297085→0.0302691 step=0.00504484 V=0.349903 u1=1.38023 u2=0.970619 u3=0 Iion=-1.3427
PIMPLE: iteration 1
DICPCG:  Solving for Vm, Initial residual = 0.000136976, Final residual = 4.51441e-16, No Iterations 5
PIMPLE: iteration 2
DICPCG:  Solving for Vm, Initial residual = 4.66816e-16, Final residual = 4.66816e-16, No Iterations 0
ExecutionTime = 0.57 s  ClockTime = 1 s

Time = 0.0308296

DEBUG cell=0 t=0.0302691→0.0308296 step=0.000560538 V=0.349998 u1=1.38023 u2=0.970619 u3=0 Iion=-1.3427
DEBUG cell=0 t=0.0302691→0.0308296 step=0.00504484 V=0.349998 u1=1.38089 u2=0.970091 u3=0 Iion=-1.34288
PIMPLE: iteration 1
DICPCG:  Solving for Vm, Initial residual = 0.000136903, Final residual = 4.51198e-16, No Iterations 5
PIMPLE: iteration 2
DICPCG:  Solving for Vm, Initial residual = 4.65832e-16, Final residual = 4.65832e-16, No Iterations 0
ExecutionTime = 0.58 s  ClockTime = 1 s

Time = 0.0313901

DEBUG cell=0 t=0.0308296→0.0313901 step=0.000560538 V=0.350094 u1=1.38089 u2=0.970091 u3=0 Iion=-1.34288
DEBUG cell=0 t=0.0308296→0.0313901 step=0.00504484 V=0.350094 u1=1.38155 u2=0.969564 u3=0 Iion=-1.34306
PIMPLE: iteration 1
DICPCG:  Solving for Vm, Initial residual = 0.000136829, Final residual = 4.50954e-16, No Iterations 5
PIMPLE: iteration 2
DICPCG:  Solving for Vm, Initial residual = 4.66341e-16, Final residual = 4.66341e-16, No Iterations 0
ExecutionTime = 0.59 s  ClockTime = 1 s

Time = 0.0319507

DEBUG cell=0 t=0.0313901→0.0319507 step=0.000560538 V=0.35019 u1=1.38155 u2=0.969564 u3=0 Iion=-1.34306
DEBUG cell=0 t=0.0313901→0.0319507 step=0.00504484 V=0.35019 u1=1.3822 u2=0.969038 u3=0 Iion=-1.34325
PIMPLE: iteration 1
DICPCG:  Solving for Vm, Initial residual = 0.000136755, Final residual = 4.50711e-16, No Iterations 5
PIMPLE: iteration 2
DICPCG:  Solving for Vm, Initial residual = 4.66416e-16, Final residual = 4.66416e-16, No Iterations 0
ExecutionTime = 0.59 s  ClockTime = 1 s

Time = 0.0325112

DEBUG cell=0 t=0.0319507→0.0325112 step=0.000560538 V=0.350286 u1=1.3822 u2=0.969038 u3=0 Iion=-1.34325
DEBUG cell=0 t=0.0319507→0.0325112 step=0.00504484 V=0.350286 u1=1.38286 u2=0.968511 u3=0 Iion=-1.34343
PIMPLE: iteration 1
DICPCG:  Solving for Vm, Initial residual = 0.000136681, Final residual = 4.50468e-16, No Iterations 5
PIMPLE: iteration 2
DICPCG:  Solving for Vm, Initial residual = 4.65841e-16, Final residual = 4.65841e-16, No Iterations 0
ExecutionTime = 0.6 s  ClockTime = 1 s

Time = 0.0330717

DEBUG cell=0 t=0.0325112→0.0330717 step=0.000560538 V=0.350382 u1=1.38286 u2=0.968511 u3=0 Iion=-1.34343
DEBUG cell=0 t=0.0325112→0.0330717 step=0.00504484 V=0.350382 u1=1.38351 u2=0.967986 u3=0 Iion=-1.34361
PIMPLE: iteration 1
DICPCG:  Solving for Vm, Initial residual = 0.000136608, Final residual = 4.50226e-16, No Iterations 5
PIMPLE: iteration 2
DICPCG:  Solving for Vm, Initial residual = 4.65652e-16, Final residual = 4.65652e-16, No Iterations 0
ExecutionTime = 0.62 s  ClockTime = 1 s

Time = 0.0336323

DEBUG cell=0 t=0.0330717→0.0336323 step=0.000560538 V=0.350477 u1=1.38351 u2=0.967986 u3=0 Iion=-1.34361
DEBUG cell=0 t=0.0330717→0.0336323 step=0.00504484 V=0.350477 u1=1.38417 u2=0.967461 u3=0 Iion=-1.34379
PIMPLE: iteration 1
DICPCG:  Solving for Vm, Initial residual = 0.000136534, Final residual = 4.49983e-16, No Iterations 5
PIMPLE: iteration 2
DICPCG:  Solving for Vm, Initial residual = 4.65818e-16, Final residual = 4.65818e-16, No Iterations 0
ExecutionTime = 0.62 s  ClockTime = 1 s

Time = 0.0341928

DEBUG cell=0 t=0.0336323→0.0341928 step=0.000560538 V=0.350573 u1=1.38417 u2=0.967461 u3=0 Iion=-1.34379
DEBUG cell=0 t=0.0336323→0.0341928 step=0.00504484 V=0.350573 u1=1.38482 u2=0.966937 u3=0 Iion=-1.34398
PIMPLE: iteration 1
DICPCG:  Solving for Vm, Initial residual = 0.000136461, Final residual = 4.49741e-16, No Iterations 5
PIMPLE: iteration 2
DICPCG:  Solving for Vm, Initial residual = 4.65376e-16, Final residual = 4.65376e-16, No Iterations 0
ExecutionTime = 0.63 s  ClockTime = 1 s

Time = 0.0347534

DEBUG cell=0 t=0.0341928→0.0347534 step=0.000560538 V=0.350669 u1=1.38482 u2=0.966937 u3=0 Iion=-1.34398
DEBUG cell=0 t=0.0341928→0.0347534 step=0.00504484 V=0.350669 u1=1.38548 u2=0.966413 u3=0 Iion=-1.34416
PIMPLE: iteration 1
DICPCG:  Solving for Vm, Initial residual = 0.000136387, Final residual = 4.49499e-16, No Iterations 5
PIMPLE: iteration 2
DICPCG:  Solving for Vm, Initial residual = 4.64522e-16, Final residual = 4.64522e-16, No Iterations 0
ExecutionTime = 0.64 s  ClockTime = 1 s

Time = 0.0353139

DEBUG cell=0 t=0.0347534→0.0353139 step=0.000560538 V=0.350765 u1=1.38548 u2=0.966413 u3=0 Iion=-1.34416
DEBUG cell=0 t=0.0347534→0.0353139 step=0.00504484 V=0.350765 u1=1.38613 u2=0.96589 u3=0 Iion=-1.34434
PIMPLE: iteration 1
DICPCG:  Solving for Vm, Initial residual = 0.000136314, Final residual = 4.49258e-16, No Iterations 5
PIMPLE: iteration 2
DICPCG:  Solving for Vm, Initial residual = 4.64757e-16, Final residual = 4.64757e-16, No Iterations 0
ExecutionTime = 0.65 s  ClockTime = 1 s

Time = 0.0358744

DEBUG cell=0 t=0.0353139→0.0358744 step=0.000560538 V=0.35086 u1=1.38613 u2=0.96589 u3=0 Iion=-1.34434
DEBUG cell=0 t=0.0353139→0.0358744 step=0.00504484 V=0.35086 u1=1.38679 u2=0.965367 u3=0 Iion=-1.34453
PIMPLE: iteration 1
DICPCG:  Solving for Vm, Initial residual = 0.000136241, Final residual = 4.49017e-16, No Iterations 5
PIMPLE: iteration 2
DICPCG:  Solving for Vm, Initial residual = 4.64298e-16, Final residual = 4.64298e-16, No Iterations 0
ExecutionTime = 0.65 s  ClockTime = 1 s

Time = 0.036435

DEBUG cell=0 t=0.0358744→0.036435 step=0.000560538 V=0.350956 u1=1.38679 u2=0.965367 u3=0 Iion=-1.34453
DEBUG cell=0 t=0.0358744→0.036435 step=0.00504484 V=0.350956 u1=1.38745 u2=0.964845 u3=0 Iion=-1.34471
PIMPLE: iteration 1
DICPCG:  Solving for Vm, Initial residual = 0.000136168, Final residual = 4.48776e-16, No Iterations 5
PIMPLE: iteration 2
DICPCG:  Solving for Vm, Initial residual = 4.63908e-16, Final residual = 4.63908e-16, No Iterations 0
ExecutionTime = 0.66 s  ClockTime = 1 s

Time = 0.0369955

DEBUG cell=0 t=0.036435→0.0369955 step=0.000560538 V=0.351051 u1=1.38745 u2=0.964845 u3=0 Iion=-1.34471
DEBUG cell=0 t=0.036435→0.0369955 step=0.00504484 V=0.351051 u1=1.3881 u2=0.964323 u3=0 Iion=-1.34489
PIMPLE: iteration 1
DICPCG:  Solving for Vm, Initial residual = 0.000136095, Final residual = 4.48535e-16, No Iterations 5
PIMPLE: iteration 2
DICPCG:  Solving for Vm, Initial residual = 4.63492e-16, Final residual = 4.63492e-16, No Iterations 0
ExecutionTime = 0.67 s  ClockTime = 1 s

Time = 0.037556

DEBUG cell=0 t=0.0369955→0.037556 step=0.000560538 V=0.351147 u1=1.3881 u2=0.964323 u3=0 Iion=-1.34489
DEBUG cell=0 t=0.0369955→0.037556 step=0.00504484 V=0.351147 u1=1.38876 u2=0.963802 u3=0 Iion=-1.34507
PIMPLE: iteration 1
DICPCG:  Solving for Vm, Initial residual = 0.000136022, Final residual = 4.48294e-16, No Iterations 5
PIMPLE: iteration 2
DICPCG:  Solving for Vm, Initial residual = 4.63866e-16, Final residual = 4.63866e-16, No Iterations 0
ExecutionTime = 0.68 s  ClockTime = 1 s

Time = 0.0381166

DEBUG cell=0 t=0.037556→0.0381166 step=0.000560538 V=0.351243 u1=1.38876 u2=0.963802 u3=0 Iion=-1.34507
DEBUG cell=0 t=0.037556→0.0381166 step=0.00504484 V=0.351243 u1=1.38941 u2=0.963282 u3=0 Iion=-1.34526
PIMPLE: iteration 1
DICPCG:  Solving for Vm, Initial residual = 0.000135949, Final residual = 4.48054e-16, No Iterations 5
PIMPLE: iteration 2
DICPCG:  Solving for Vm, Initial residual = 4.64134e-16, Final residual = 4.64134e-16, No Iterations 0
ExecutionTime = 0.68 s  ClockTime = 1 s

Time = 0.0386771

DEBUG cell=0 t=0.0381166→0.0386771 step=0.000560538 V=0.351338 u1=1.38941 u2=0.963282 u3=0 Iion=-1.34526
DEBUG cell=0 t=0.0381166→0.0386771 step=0.00504484 V=0.351338 u1=1.39007 u2=0.962762 u3=0 Iion=-1.34544
PIMPLE: iteration 1
DICPCG:  Solving for Vm, Initial residual = 0.000135876, Final residual = 4.47814e-16, No Iterations 5
PIMPLE: iteration 2
DICPCG:  Solving for Vm, Initial residual = 4.62808e-16, Final residual = 4.62808e-16, No Iterations 0
ExecutionTime = 0.69 s  ClockTime = 1 s

Time = 0.0392377

DEBUG cell=0 t=0.0386771→0.0392377 step=0.000560538 V=0.351434 u1=1.39007 u2=0.962762 u3=0 Iion=-1.34544
DEBUG cell=0 t=0.0386771→0.0392377 step=0.00504484 V=0.351434 u1=1.39072 u2=0.962243 u3=0 Iion=-1.34562
PIMPLE: iteration 1
DICPCG:  Solving for Vm, Initial residual = 0.000135804, Final residual = 4.47574e-16, No Iterations 5
PIMPLE: iteration 2
DICPCG:  Solving for Vm, Initial residual = 4.63221e-16, Final residual = 4.63221e-16, No Iterations 0
ExecutionTime = 0.7 s  ClockTime = 1 s

Time = 0.0397982

DEBUG cell=0 t=0.0392377→0.0397982 step=0.000560538 V=0.351529 u1=1.39072 u2=0.962243 u3=0 Iion=-1.34562
DEBUG cell=0 t=0.0392377→0.0397982 step=0.00504484 V=0.351529 u1=1.39138 u2=0.961724 u3=0 Iion=-1.34581
PIMPLE: iteration 1
DICPCG:  Solving for Vm, Initial residual = 0.000135731, Final residual = 4.47335e-16, No Iterations 5
PIMPLE: iteration 2
DICPCG:  Solving for Vm, Initial residual = 4.61852e-16, Final residual = 4.61852e-16, No Iterations 0
ExecutionTime = 0.7 s  ClockTime = 1 s

Time = 0.0403587

DEBUG cell=0 t=0.0397982→0.0403587 step=0.000560538 V=0.351625 u1=1.39138 u2=0.961724 u3=0 Iion=-1.34581
DEBUG cell=0 t=0.0397982→0.0403587 step=0.00504484 V=0.351625 u1=1.39203 u2=0.961206 u3=0 Iion=-1.34599
PIMPLE: iteration 1
DICPCG:  Solving for Vm, Initial residual = 0.000135658, Final residual = 4.47096e-16, No Iterations 5
PIMPLE: iteration 2
DICPCG:  Solving for Vm, Initial residual = 4.62772e-16, Final residual = 4.62772e-16, No Iterations 0
ExecutionTime = 0.71 s  ClockTime = 1 s

Time = 0.0409193

DEBUG cell=0 t=0.0403587→0.0409193 step=0.000560538 V=0.35172 u1=1.39203 u2=0.961206 u3=0 Iion=-1.34599
DEBUG cell=0 t=0.0403587→0.0409193 step=0.00504484 V=0.35172 u1=1.39269 u2=0.960688 u3=0 Iion=-1.34617
PIMPLE: iteration 1
DICPCG:  Solving for Vm, Initial residual = 0.000135586, Final residual = 4.46857e-16, No Iterations 5
PIMPLE: iteration 2
DICPCG:  Solving for Vm, Initial residual = 4.62265e-16, Final residual = 4.62265e-16, No Iterations 0
ExecutionTime = 0.73 s  ClockTime = 1 s

Time = 0.0414798

DEBUG cell=0 t=0.0409193→0.0414798 step=0.000560538 V=0.351815 u1=1.39269 u2=0.960688 u3=0 Iion=-1.34617
DEBUG cell=0 t=0.0409193→0.0414798 step=0.00504484 V=0.351815 u1=1.39334 u2=0.960171 u3=0 Iion=-1.34636
PIMPLE: iteration 1
DICPCG:  Solving for Vm, Initial residual = 0.000135513, Final residual = 4.46618e-16, No Iterations 5
PIMPLE: iteration 2
DICPCG:  Solving for Vm, Initial residual = 4.61974e-16, Final residual = 4.61974e-16, No Iterations 0
ExecutionTime = 0.74 s  ClockTime = 1 s

Time = 0.0420403

DEBUG cell=0 t=0.0414798→0.0420403 step=0.000560538 V=0.351911 u1=1.39334 u2=0.960171 u3=0 Iion=-1.34636
DEBUG cell=0 t=0.0414798→0.0420403 step=0.00504484 V=0.351911 u1=1.394 u2=0.959655 u3=0 Iion=-1.34654
PIMPLE: iteration 1
DICPCG:  Solving for Vm, Initial residual = 0.000135441, Final residual = 4.46379e-16, No Iterations 5
PIMPLE: iteration 2
DICPCG:  Solving for Vm, Initial residual = 4.61308e-16, Final residual = 4.61308e-16, No Iterations 0
ExecutionTime = 0.74 s  ClockTime = 1 s

Time = 0.0426009

DEBUG cell=0 t=0.0420403→0.0426009 step=0.000560538 V=0.352006 u1=1.394 u2=0.959655 u3=0 Iion=-1.34654
DEBUG cell=0 t=0.0420403→0.0426009 step=0.00504484 V=0.352006 u1=1.39465 u2=0.959139 u3=0 Iion=-1.34672
PIMPLE: iteration 1
DICPCG:  Solving for Vm, Initial residual = 0.000135369, Final residual = 4.46141e-16, No Iterations 5
PIMPLE: iteration 2
DICPCG:  Solving for Vm, Initial residual = 4.62094e-16, Final residual = 4.62094e-16, No Iterations 0
ExecutionTime = 0.75 s  ClockTime = 1 s

Time = 0.0431614

DEBUG cell=0 t=0.0426009→0.0431614 step=0.000560538 V=0.352101 u1=1.39465 u2=0.959139 u3=0 Iion=-1.34672
DEBUG cell=0 t=0.0426009→0.0431614 step=0.00504484 V=0.352101 u1=1.39531 u2=0.958623 u3=0 Iion=-1.3469
PIMPLE: iteration 1
DICPCG:  Solving for Vm, Initial residual = 0.000135297, Final residual = 4.45903e-16, No Iterations 5
PIMPLE: iteration 2
DICPCG:  Solving for Vm, Initial residual = 4.60608e-16, Final residual = 4.60608e-16, No Iterations 0
ExecutionTime = 0.76 s  ClockTime = 1 s

Time = 0.043722

DEBUG cell=0 t=0.0431614→0.043722 step=0.000560538 V=0.352197 u1=1.39531 u2=0.958623 u3=0 Iion=-1.3469
DEBUG cell=0 t=0.0431614→0.043722 step=0.00504484 V=0.352197 u1=1.39596 u2=0.958109 u3=0 Iion=-1.34709
PIMPLE: iteration 1
DICPCG:  Solving for Vm, Initial residual = 0.000135225, Final residual = 4.45666e-16, No Iterations 5
PIMPLE: iteration 2
DICPCG:  Solving for Vm, Initial residual = 4.60972e-16, Final residual = 4.60972e-16, No Iterations 0
ExecutionTime = 0.76 s  ClockTime = 1 s

Time = 0.0442825

DEBUG cell=0 t=0.043722→0.0442825 step=0.000560538 V=0.352292 u1=1.39596 u2=0.958109 u3=0 Iion=-1.34709
DEBUG cell=0 t=0.043722→0.0442825 step=0.00504484 V=0.352292 u1=1.39662 u2=0.957594 u3=0 Iion=-1.34727
PIMPLE: iteration 1
DICPCG:  Solving for Vm, Initial residual = 0.000135153, Final residual = 4.45428e-16, No Iterations 5
PIMPLE: iteration 2
DICPCG:  Solving for Vm, Initial residual = 4.61141e-16, Final residual = 4.61141e-16, No Iterations 0
ExecutionTime = 0.77 s  ClockTime = 1 s

Time = 0.044843

DEBUG cell=0 t=0.0442825→0.044843 step=0.000560538 V=0.352387 u1=1.39662 u2=0.957594 u3=0 Iion=-1.34727
DEBUG cell=0 t=0.0442825→0.044843 step=0.00504484 V=0.352387 u1=1.39727 u2=0.95708 u3=0 Iion=-1.34745
PIMPLE: iteration 1
DICPCG:  Solving for Vm, Initial residual = 0.000135081, Final residual = 4.45191e-16, No Iterations 5
PIMPLE: iteration 2
DICPCG:  Solving for Vm, Initial residual = 4.59689e-16, Final residual = 4.59689e-16, No Iterations 0
ExecutionTime = 0.78 s  ClockTime = 1 s

Time = 0.0454036

DEBUG cell=0 t=0.044843→0.0454036 step=0.000560538 V=0.352482 u1=1.39727 u2=0.95708 u3=0 Iion=-1.34745
DEBUG cell=0 t=0.044843→0.0454036 step=0.00504484 V=0.352482 u1=1.39793 u2=0.956567 u3=0 Iion=-1.34764
PIMPLE: iteration 1
DICPCG:  Solving for Vm, Initial residual = 0.000135009, Final residual = 4.44954e-16, No Iterations 5
PIMPLE: iteration 2
DICPCG:  Solving for Vm, Initial residual = 4.60568e-16, Final residual = 4.60568e-16, No Iterations 0
ExecutionTime = 0.79 s  ClockTime = 1 s

Time = 0.0459641

DEBUG cell=0 t=0.0454036→0.0459641 step=0.000560538 V=0.352578 u1=1.39793 u2=0.956567 u3=0 Iion=-1.34764
DEBUG cell=0 t=0.0454036→0.0459641 step=0.00504484 V=0.352578 u1=1.39858 u2=0.956055 u3=0 Iion=-1.34782
PIMPLE: iteration 1
DICPCG:  Solving for Vm, Initial residual = 0.000134937, Final residual = 4.44718e-16, No Iterations 5
PIMPLE: iteration 2
DICPCG:  Solving for Vm, Initial residual = 4.60976e-16, Final residual = 4.60976e-16, No Iterations 0
ExecutionTime = 0.79 s  ClockTime = 1 s

Time = 0.0465247

DEBUG cell=0 t=0.0459641→0.0465247 step=0.000560538 V=0.352673 u1=1.39858 u2=0.956055 u3=0 Iion=-1.34782
DEBUG cell=0 t=0.0459641→0.0465247 step=0.00504484 V=0.352673 u1=1.39924 u2=0.955543 u3=0 Iion=-1.348
PIMPLE: iteration 1
DICPCG:  Solving for Vm, Initial residual = 0.000134865, Final residual = 4.44481e-16, No Iterations 5
PIMPLE: iteration 2
DICPCG:  Solving for Vm, Initial residual = 4.59057e-16, Final residual = 4.59057e-16, No Iterations 0
ExecutionTime = 0.8 s  ClockTime = 1 s

Time = 0.0470852

DEBUG cell=0 t=0.0465247→0.0470852 step=0.000560538 V=0.352768 u1=1.39924 u2=0.955543 u3=0 Iion=-1.348
DEBUG cell=0 t=0.0465247→0.0470852 step=0.00504484 V=0.352768 u1=1.39989 u2=0.955031 u3=0 Iion=-1.34819
PIMPLE: iteration 1
DICPCG:  Solving for Vm, Initial residual = 0.000134794, Final residual = 4.44245e-16, No Iterations 5
PIMPLE: iteration 2
DICPCG:  Solving for Vm, Initial residual = 4.60013e-16, Final residual = 4.60013e-16, No Iterations 0
ExecutionTime = 0.81 s  ClockTime = 1 s

Time = 0.0476457

DEBUG cell=0 t=0.0470852→0.0476457 step=0.000560538 V=0.352863 u1=1.39989 u2=0.955031 u3=0 Iion=-1.34819
DEBUG cell=0 t=0.0470852→0.0476457 step=0.00504484 V=0.352863 u1=1.40055 u2=0.95452 u3=0 Iion=-1.34837
PIMPLE: iteration 1
DICPCG:  Solving for Vm, Initial residual = 0.000134722, Final residual = 4.44009e-16, No Iterations 5
PIMPLE: iteration 2
DICPCG:  Solving for Vm, Initial residual = 4.58407e-16, Final residual = 4.58407e-16, No Iterations 0
ExecutionTime = 0.81 s  ClockTime = 1 s

Time = 0.0482063

DEBUG cell=0 t=0.0476457→0.0482063 step=0.000560538 V=0.352958 u1=1.40055 u2=0.95452 u3=0 Iion=-1.34837
DEBUG cell=0 t=0.0476457→0.0482063 step=0.00504484 V=0.352958 u1=1.4012 u2=0.95401 u3=0 Iion=-1.34855
PIMPLE: iteration 1
DICPCG:  Solving for Vm, Initial residual = 0.000134651, Final residual = 4.43773e-16, No Iterations 5
PIMPLE: iteration 2
DICPCG:  Solving for Vm, Initial residual = 4.59709e-16, Final residual = 4.59709e-16, No Iterations 0
ExecutionTime = 0.82 s  ClockTime = 1 s

Time = 0.0487668

DEBUG cell=0 t=0.0482063→0.0487668 step=0.000560538 V=0.353053 u1=1.4012 u2=0.95401 u3=0 Iion=-1.34855
DEBUG cell=0 t=0.0482063→0.0487668 step=0.00504484 V=0.353053 u1=1.40186 u2=0.9535 u3=0 Iion=-1.34873
PIMPLE: iteration 1
DICPCG:  Solving for Vm, Initial residual = 0.000134579, Final residual = 4.43538e-16, No Iterations 5
PIMPLE: iteration 2
DICPCG:  Solving for Vm, Initial residual = 4.59138e-16, Final residual = 4.59138e-16, No Iterations 0
ExecutionTime = 0.83 s  ClockTime = 1 s

Time = 0.0493273

DEBUG cell=0 t=0.0487668→0.0493273 step=0.000560538 V=0.353148 u1=1.40186 u2=0.9535 u3=0 Iion=-1.34873
DEBUG cell=0 t=0.0487668→0.0493273 step=0.00504484 V=0.353148 u1=1.40251 u2=0.95299 u3=0 Iion=-1.34892
PIMPLE: iteration 1
DICPCG:  Solving for Vm, Initial residual = 0.000134508, Final residual = 4.43303e-16, No Iterations 5
PIMPLE: iteration 2
DICPCG:  Solving for Vm, Initial residual = 4.59002e-16, Final residual = 4.59002e-16, No Iterations 0
ExecutionTime = 0.84 s  ClockTime = 1 s

Time = 0.0498879

DEBUG cell=0 t=0.0493273→0.0498879 step=0.000560538 V=0.353243 u1=1.40251 u2=0.95299 u3=0 Iion=-1.34892
DEBUG cell=0 t=0.0493273→0.0498879 step=0.00504484 V=0.353243 u1=1.40317 u2=0.952482 u3=0 Iion=-1.3491
PIMPLE: iteration 1
DICPCG:  Solving for Vm, Initial residual = 0.000134437, Final residual = 4.43068e-16, No Iterations 5
PIMPLE: iteration 2
DICPCG:  Solving for Vm, Initial residual = 4.58399e-16, Final residual = 4.58399e-16, No Iterations 0
ExecutionTime = 0.85 s  ClockTime = 1 s

Time = 0.0504484

DEBUG cell=0 t=0.0498879→0.0504484 step=0.000560538 V=0.353338 u1=1.40317 u2=0.952482 u3=0 Iion=-1.3491
DEBUG cell=0 t=0.0498879→0.0504484 step=0.00504484 V=0.353338 u1=1.40382 u2=0.951973 u3=0 Iion=-1.34928
PIMPLE: iteration 1
DICPCG:  Solving for Vm, Initial residual = 0.000134366, Final residual = 4.42833e-16, No Iterations 5
PIMPLE: iteration 2
DICPCG:  Solving for Vm, Initial residual = 4.58335e-16, Final residual = 4.58335e-16, No Iterations 0
ExecutionTime = 0.86 s  ClockTime = 1 s

Time = 0.051009

DEBUG cell=0 t=0.0504484→0.051009 step=0.000560538 V=0.353433 u1=1.40382 u2=0.951973 u3=0 Iion=-1.34928
DEBUG cell=0 t=0.0504484→0.051009 step=0.00504484 V=0.353433 u1=1.40448 u2=0.951466 u3=0 Iion=-1.34947
PIMPLE: iteration 1
DICPCG:  Solving for Vm, Initial residual = 0.000134294, Final residual = 4.42599e-16, No Iterations 5
PIMPLE: iteration 2
DICPCG:  Solving for Vm, Initial residual = 4.56874e-16, Final residual = 4.56874e-16, No Iterations 0
ExecutionTime = 0.87 s  ClockTime = 1 s

Time = 0.0515695

DEBUG cell=0 t=0.051009→0.0515695 step=0.000560538 V=0.353528 u1=1.40448 u2=0.951466 u3=0 Iion=-1.34947
DEBUG cell=0 t=0.051009→0.0515695 step=0.00504484 V=0.353528 u1=1.40513 u2=0.950959 u3=0 Iion=-1.34965
PIMPLE: iteration 1
DICPCG:  Solving for Vm, Initial residual = 0.000134223, Final residual = 4.42365e-16, No Iterations 5
PIMPLE: iteration 2
DICPCG:  Solving for Vm, Initial residual = 4.57987e-16, Final residual = 4.57987e-16, No Iterations 0
ExecutionTime = 0.87 s  ClockTime = 1 s

Time = 0.05213

DEBUG cell=0 t=0.0515695→0.05213 step=0.000560538 V=0.353623 u1=1.40513 u2=0.950959 u3=0 Iion=-1.34965
DEBUG cell=0 t=0.0515695→0.05213 step=0.00504484 V=0.353623 u1=1.40579 u2=0.950452 u3=0 Iion=-1.34983
PIMPLE: iteration 1
DICPCG:  Solving for Vm, Initial residual = 0.000134153, Final residual = 4.42131e-16, No Iterations 5
PIMPLE: iteration 2
DICPCG:  Solving for Vm, Initial residual = 4.58602e-16, Final residual = 4.58602e-16, No Iterations 0
ExecutionTime = 0.88 s  ClockTime = 1 s

Time = 0.0526906

DEBUG cell=0 t=0.05213→0.0526906 step=0.000560538 V=0.353718 u1=1.40579 u2=0.950452 u3=0 Iion=-1.34983
DEBUG cell=0 t=0.05213→0.0526906 step=0.00504484 V=0.353718 u1=1.40644 u2=0.949946 u3=0 Iion=-1.35002
PIMPLE: iteration 1
DICPCG:  Solving for Vm, Initial residual = 0.000134082, Final residual = 4.41897e-16, No Iterations 5
PIMPLE: iteration 2
DICPCG:  Solving for Vm, Initial residual = 4.56876e-16, Final residual = 4.56876e-16, No Iterations 0
ExecutionTime = 0.89 s  ClockTime = 1 s

Time = 0.0532511

DEBUG cell=0 t=0.0526906→0.0532511 step=0.000560538 V=0.353813 u1=1.40644 u2=0.949946 u3=0 Iion=-1.35002
DEBUG cell=0 t=0.0526906→0.0532511 step=0.00504484 V=0.353813 u1=1.4071 u2=0.94944 u3=0 Iion=-1.3502
PIMPLE: iteration 1
DICPCG:  Solving for Vm, Initial residual = 0.000134011, Final residual = 4.41664e-16, No Iterations 5
PIMPLE: iteration 2
DICPCG:  Solving for Vm, Initial residual = 4.57481e-16, Final residual = 4.57481e-16, No Iterations 0
ExecutionTime = 0.9 s  ClockTime = 1 s

Time = 0.0538116

DEBUG cell=0 t=0.0532511→0.0538116 step=0.000560538 V=0.353908 u1=1.4071 u2=0.94944 u3=0 Iion=-1.3502
DEBUG cell=0 t=0.0532511→0.0538116 step=0.00504484 V=0.353908 u1=1.40775 u2=0.948935 u3=0 Iion=-1.35038
PIMPLE: iteration 1
DICPCG:  Solving for Vm, Initial residual = 0.00013394, Final residual = 4.41431e-16, No Iterations 5
PIMPLE: iteration 2
DICPCG:  Solving for Vm, Initial residual = 4.56844e-16, Final residual = 4.56844e-16, No Iterations 0
ExecutionTime = 0.9 s  ClockTime = 1 s

Time = 0.0543722

DEBUG cell=0 t=0.0538116→0.0543722 step=0.000560538 V=0.354003 u1=1.40775 u2=0.948935 u3=0 Iion=-1.35038
DEBUG cell=0 t=0.0538116→0.0543722 step=0.00504484 V=0.354003 u1=1.40841 u2=0.948431 u3=0 Iion=-1.35056
PIMPLE: iteration 1
DICPCG:  Solving for Vm, Initial residual = 0.00013387, Final residual = 4.41198e-16, No Iterations 5
PIMPLE: iteration 2
DICPCG:  Solving for Vm, Initial residual = 4.56982e-16, Final residual = 4.56982e-16, No Iterations 0
ExecutionTime = 0.91 s  ClockTime = 1 s

Time = 0.0549327

DEBUG cell=0 t=0.0543722→0.0549327 step=0.000560538 V=0.354097 u1=1.40841 u2=0.948431 u3=0 Iion=-1.35056
DEBUG cell=0 t=0.0543722→0.0549327 step=0.00504484 V=0.354097 u1=1.40906 u2=0.947927 u3=0 Iion=-1.35075
PIMPLE: iteration 1
DICPCG:  Solving for Vm, Initial residual = 0.000133799, Final residual = 4.40965e-16, No Iterations 5
PIMPLE: iteration 2
DICPCG:  Solving for Vm, Initial residual = 4.56659e-16, Final residual = 4.56659e-16, No Iterations 0
ExecutionTime = 0.92 s  ClockTime = 1 s

Time = 0.0554933

DEBUG cell=0 t=0.0549327→0.0554933 step=0.000560538 V=0.354192 u1=1.40906 u2=0.947927 u3=0 Iion=-1.35075
DEBUG cell=0 t=0.0549327→0.0554933 step=0.00504484 V=0.354192 u1=1.40972 u2=0.947423 u3=0 Iion=-1.35093
PIMPLE: iteration 1
DICPCG:  Solving for Vm, Initial residual = 0.000133728, Final residual = 4.40733e-16, No Iterations 5
PIMPLE: iteration 2
DICPCG:  Solving for Vm, Initial residual = 4.56913e-16, Final residual = 4.56913e-16, No Iterations 0
ExecutionTime = 0.92 s  ClockTime = 1 s

Time = 0.0560538

DEBUG cell=0 t=0.0554933→0.0560538 step=0.000560538 V=0.354287 u1=1.40972 u2=0.947423 u3=0 Iion=-1.35093
DEBUG cell=0 t=0.0554933→0.0560538 step=0.00504484 V=0.354287 u1=1.41037 u2=0.946921 u3=0 Iion=-1.35111
PIMPLE: iteration 1
DICPCG:  Solving for Vm, Initial residual = 0.000133658, Final residual = 4.40501e-16, No Iterations 5
PIMPLE: iteration 2
DICPCG:  Solving for Vm, Initial residual = 4.56047e-16, Final residual = 4.56047e-16, No Iterations 0
ExecutionTime = 0.93 s  ClockTime = 1 s

Time = 0.0566143

DEBUG cell=0 t=0.0560538→0.0566143 step=0.000560538 V=0.354382 u1=1.41037 u2=0.946921 u3=0 Iion=-1.35111
DEBUG cell=0 t=0.0560538→0.0566143 step=0.00504484 V=0.354382 u1=1.41103 u2=0.946418 u3=0 Iion=-1.3513
PIMPLE: iteration 1
DICPCG:  Solving for Vm, Initial residual = 0.000133588, Final residual = 4.40269e-16, No Iterations 5
PIMPLE: iteration 2
DICPCG:  Solving for Vm, Initial residual = 4.5598e-16, Final residual = 4.5598e-16, No Iterations 0
ExecutionTime = 0.94 s  ClockTime = 1 s

Time = 0.0571749

DEBUG cell=0 t=0.0566143→0.0571749 step=0.000560538 V=0.354476 u1=1.41103 u2=0.946418 u3=0 Iion=-1.3513
DEBUG cell=0 t=0.0566143→0.0571749 step=0.00504484 V=0.354476 u1=1.41168 u2=0.945916 u3=0 Iion=-1.35148
PIMPLE: iteration 1
DICPCG:  Solving for Vm, Initial residual = 0.000133517, Final residual = 4.40037e-16, No Iterations 5
PIMPLE: iteration 2
DICPCG:  Solving for Vm, Initial residual = 4.55549e-16, Final residual = 4.55549e-16, No Iterations 0
ExecutionTime = 0.95 s  ClockTime = 1 s

Time = 0.0577354

DEBUG cell=0 t=0.0571749→0.0577354 step=0.000560538 V=0.354571 u1=1.41168 u2=0.945916 u3=0 Iion=-1.35148
DEBUG cell=0 t=0.0571749→0.0577354 step=0.00504484 V=0.354571 u1=1.41233 u2=0.945415 u3=0 Iion=-1.35166
PIMPLE: iteration 1
DICPCG:  Solving for Vm, Initial residual = 0.000133447, Final residual = 4.39806e-16, No Iterations 5
PIMPLE: iteration 2
DICPCG:  Solving for Vm, Initial residual = 4.55712e-16, Final residual = 4.55712e-16, No Iterations 0
ExecutionTime = 0.95 s  ClockTime = 1 s

Time = 0.058296

DEBUG cell=0 t=0.0577354→0.058296 step=0.000560538 V=0.354666 u1=1.41233 u2=0.945415 u3=0 Iion=-1.35166
DEBUG cell=0 t=0.0577354→0.058296 step=0.00504484 V=0.354666 u1=1.41299 u2=0.944914 u3=0 Iion=-1.35185
PIMPLE: iteration 1
DICPCG:  Solving for Vm, Initial residual = 0.000133377, Final residual = 4.39574e-16, No Iterations 5
PIMPLE: iteration 2
DICPCG:  Solving for Vm, Initial residual = 4.54678e-16, Final residual = 4.54678e-16, No Iterations 0
ExecutionTime = 0.97 s  ClockTime = 1 s

Time = 0.0588565

DEBUG cell=0 t=0.058296→0.0588565 step=0.000560538 V=0.35476 u1=1.41299 u2=0.944914 u3=0 Iion=-1.35185
DEBUG cell=0 t=0.058296→0.0588565 step=0.00504484 V=0.35476 u1=1.41364 u2=0.944414 u3=0 Iion=-1.35203
PIMPLE: iteration 1
DICPCG:  Solving for Vm, Initial residual = 0.000133307, Final residual = 4.39344e-16, No Iterations 5
PIMPLE: iteration 2
DICPCG:  Solving for Vm, Initial residual = 4.54611e-16, Final residual = 4.54611e-16, No Iterations 0
ExecutionTime = 0.98 s  ClockTime = 1 s

Time = 0.059417

DEBUG cell=0 t=0.0588565→0.059417 step=0.000560538 V=0.354855 u1=1.41364 u2=0.944414 u3=0 Iion=-1.35203
DEBUG cell=0 t=0.0588565→0.059417 step=0.00504484 V=0.354855 u1=1.4143 u2=0.943914 u3=0 Iion=-1.35221
PIMPLE: iteration 1
DICPCG:  Solving for Vm, Initial residual = 0.000133237, Final residual = 4.39113e-16, No Iterations 5
PIMPLE: iteration 2
DICPCG:  Solving for Vm, Initial residual = 4.54242e-16, Final residual = 4.54242e-16, No Iterations 0
ExecutionTime = 0.98 s  ClockTime = 1 s

Time = 0.0599776

DEBUG cell=0 t=0.059417→0.0599776 step=0.000560538 V=0.354949 u1=1.4143 u2=0.943914 u3=0 Iion=-1.35221
DEBUG cell=0 t=0.059417→0.0599776 step=0.00504484 V=0.354949 u1=1.41495 u2=0.943415 u3=0 Iion=-1.35239
PIMPLE: iteration 1
DICPCG:  Solving for Vm, Initial residual = 0.000133167, Final residual = 4.38882e-16, No Iterations 5
PIMPLE: iteration 2
DICPCG:  Solving for Vm, Initial residual = 4.55549e-16, Final residual = 4.55549e-16, No Iterations 0
ExecutionTime = 0.99 s  ClockTime = 1 s

Time = 0.0605381

DEBUG cell=0 t=0.0599776→0.0605381 step=0.000560538 V=0.355044 u1=1.41495 u2=0.943415 u3=0 Iion=-1.35239
DEBUG cell=0 t=0.0599776→0.0605381 step=0.00504484 V=0.355044 u1=1.41561 u2=0.942917 u3=0 Iion=-1.35258
PIMPLE: iteration 1
DICPCG:  Solving for Vm, Initial residual = 0.000133097, Final residual = 4.38652e-16, No Iterations 5
PIMPLE: iteration 2
DICPCG:  Solving for Vm, Initial residual = 4.53511e-16, Final residual = 4.53511e-16, No Iterations 0
ExecutionTime = 1 s  ClockTime = 1 s

Time = 0.0610986

DEBUG cell=0 t=0.0605381→0.0610986 step=0.000560538 V=0.355138 u1=1.41561 u2=0.942917 u3=0 Iion=-1.35258
DEBUG cell=0 t=0.0605381→0.0610986 step=0.00504484 V=0.355138 u1=1.41626 u2=0.942419 u3=0 Iion=-1.35276
PIMPLE: iteration 1
DICPCG:  Solving for Vm, Initial residual = 0.000133028, Final residual = 4.38422e-16, No Iterations 5
PIMPLE: iteration 2
DICPCG:  Solving for Vm, Initial residual = 4.54141e-16, Final residual = 4.54141e-16, No Iterations 0
ExecutionTime = 1.01 s  ClockTime = 1 s

Time = 0.0616592

DEBUG cell=0 t=0.0610986→0.0616592 step=0.000560538 V=0.355233 u1=1.41626 u2=0.942419 u3=0 Iion=-1.35276
DEBUG cell=0 t=0.0610986→0.0616592 step=0.00504484 V=0.355233 u1=1.41692 u2=0.941921 u3=0 Iion=-1.35294
PIMPLE: iteration 1
DICPCG:  Solving for Vm, Initial residual = 0.000132958, Final residual = 4.38193e-16, No Iterations 5
PIMPLE: iteration 2
DICPCG:  Solving for Vm, Initial residual = 4.54976e-16, Final residual = 4.54976e-16, No Iterations 0
ExecutionTime = 1.01 s  ClockTime = 1 s

Time = 0.0622197

DEBUG cell=0 t=0.0616592→0.0622197 step=0.000560538 V=0.355327 u1=1.41692 u2=0.941921 u3=0 Iion=-1.35294
DEBUG cell=0 t=0.0616592→0.0622197 step=0.00504484 V=0.355327 u1=1.41757 u2=0.941424 u3=0 Iion=-1.35313
PIMPLE: iteration 1
DICPCG:  Solving for Vm, Initial residual = 0.000132888, Final residual = 4.37963e-16, No Iterations 5
PIMPLE: iteration 2
DICPCG:  Solving for Vm, Initial residual = 4.53036e-16, Final residual = 4.53036e-16, No Iterations 0
ExecutionTime = 1.02 s  ClockTime = 1 s

Time = 0.0627803

DEBUG cell=0 t=0.0622197→0.0627803 step=0.000560538 V=0.355422 u1=1.41757 u2=0.941424 u3=0 Iion=-1.35313
DEBUG cell=0 t=0.0622197→0.0627803 step=0.00504484 V=0.355422 u1=1.41822 u2=0.940927 u3=0 Iion=-1.35331
PIMPLE: iteration 1
DICPCG:  Solving for Vm, Initial residual = 0.000132819, Final residual = 4.37734e-16, No Iterations 5
PIMPLE: iteration 2
DICPCG:  Solving for Vm, Initial residual = 4.53647e-16, Final residual = 4.53647e-16, No Iterations 0
ExecutionTime = 1.03 s  ClockTime = 1 s

Time = 0.0633408

DEBUG cell=0 t=0.0627803→0.0633408 step=0.000560538 V=0.355516 u1=1.41822 u2=0.940927 u3=0 Iion=-1.35331
DEBUG cell=0 t=0.0627803→0.0633408 step=0.00504484 V=0.355516 u1=1.41888 u2=0.940431 u3=0 Iion=-1.35349
PIMPLE: iteration 1
DICPCG:  Solving for Vm, Initial residual = 0.000132749, Final residual = 4.37505e-16, No Iterations 5
PIMPLE: iteration 2
DICPCG:  Solving for Vm, Initial residual = 4.5312e-16, Final residual = 4.5312e-16, No Iterations 0
ExecutionTime = 1.04 s  ClockTime = 1 s

Time = 0.0639013

DEBUG cell=0 t=0.0633408→0.0639013 step=0.000560538 V=0.355611 u1=1.41888 u2=0.940431 u3=0 Iion=-1.35349
DEBUG cell=0 t=0.0633408→0.0639013 step=0.00504484 V=0.355611 u1=1.41953 u2=0.939936 u3=0 Iion=-1.35367
PIMPLE: iteration 1
DICPCG:  Solving for Vm, Initial residual = 0.00013268, Final residual = 4.37276e-16, No Iterations 5
PIMPLE: iteration 2
DICPCG:  Solving for Vm, Initial residual = 4.5247e-16, Final residual = 4.5247e-16, No Iterations 0
ExecutionTime = 1.04 s  ClockTime = 1 s

Time = 0.0644619

DEBUG cell=0 t=0.0639013→0.0644619 step=0.000560538 V=0.355705 u1=1.41953 u2=0.939936 u3=0 Iion=-1.35367
DEBUG cell=0 t=0.0639013→0.0644619 step=0.00504484 V=0.355705 u1=1.42019 u2=0.939441 u3=0 Iion=-1.35386
PIMPLE: iteration 1
DICPCG:  Solving for Vm, Initial residual = 0.000132611, Final residual = 4.37048e-16, No Iterations 5
PIMPLE: iteration 2
DICPCG:  Solving for Vm, Initial residual = 4.53043e-16, Final residual = 4.53043e-16, No Iterations 0
ExecutionTime = 1.05 s  ClockTime = 1 s

Time = 0.0650224

DEBUG cell=0 t=0.0644619→0.0650224 step=0.000560538 V=0.355799 u1=1.42019 u2=0.939441 u3=0 Iion=-1.35386
DEBUG cell=0 t=0.0644619→0.0650224 step=0.00504484 V=0.355799 u1=1.42084 u2=0.938947 u3=0 Iion=-1.35404
PIMPLE: iteration 1
DICPCG:  Solving for Vm, Initial residual = 0.000132541, Final residual = 4.36819e-16, No Iterations 5
PIMPLE: iteration 2
DICPCG:  Solving for Vm, Initial residual = 4.54312e-16, Final residual = 4.54312e-16, No Iterations 0
ExecutionTime = 1.06 s  ClockTime = 1 s

Time = 0.0655829

DEBUG cell=0 t=0.0650224→0.0655829 step=0.000560538 V=0.355894 u1=1.42084 u2=0.938947 u3=0 Iion=-1.35404
DEBUG cell=0 t=0.0650224→0.0655829 step=0.00504484 V=0.355894 u1=1.42149 u2=0.938453 u3=0 Iion=-1.35422
PIMPLE: iteration 1
DICPCG:  Solving for Vm, Initial residual = 0.000132472, Final residual = 4.36591e-16, No Iterations 5
PIMPLE: iteration 2
DICPCG:  Solving for Vm, Initial residual = 4.51608e-16, Final residual = 4.51608e-16, No Iterations 0
ExecutionTime = 1.07 s  ClockTime = 1 s

Time = 0.0661435

DEBUG cell=0 t=0.0655829→0.0661435 step=0.000560538 V=0.355988 u1=1.42149 u2=0.938453 u3=0 Iion=-1.35422
DEBUG cell=0 t=0.0655829→0.0661435 step=0.00504484 V=0.355988 u1=1.42215 u2=0.937959 u3=0 Iion=-1.35441
PIMPLE: iteration 1
DICPCG:  Solving for Vm, Initial residual = 0.000132403, Final residual = 4.36364e-16, No Iterations 5
PIMPLE: iteration 2
DICPCG:  Solving for Vm, Initial residual = 4.52218e-16, Final residual = 4.52218e-16, No Iterations 0
ExecutionTime = 1.07 s  ClockTime = 1 s

Time = 0.066704

DEBUG cell=0 t=0.0661435→0.066704 step=0.000560538 V=0.356082 u1=1.42215 u2=0.937959 u3=0 Iion=-1.35441
DEBUG cell=0 t=0.0661435→0.066704 step=0.00504484 V=0.356082 u1=1.4228 u2=0.937466 u3=0 Iion=-1.35459
PIMPLE: iteration 1
DICPCG:  Solving for Vm, Initial residual = 0.000132334, Final residual = 4.36136e-16, No Iterations 5
PIMPLE: iteration 2
DICPCG:  Solving for Vm, Initial residual = 4.52312e-16, Final residual = 4.52312e-16, No Iterations 0
ExecutionTime = 1.08 s  ClockTime = 1 s

Time = 0.0672646

DEBUG cell=0 t=0.066704→0.0672646 step=0.000560538 V=0.356177 u1=1.4228 u2=0.937466 u3=0 Iion=-1.35459
DEBUG cell=0 t=0.066704→0.0672646 step=0.00504484 V=0.356177 u1=1.42346 u2=0.936974 u3=0 Iion=-1.35477
PIMPLE: iteration 1
DICPCG:  Solving for Vm, Initial residual = 0.000132265, Final residual = 4.35909e-16, No Iterations 5
PIMPLE: iteration 2
DICPCG:  Solving for Vm, Initial residual = 4.51818e-16, Final residual = 4.51818e-16, No Iterations 0
ExecutionTime = 1.1 s  ClockTime = 1 s

Time = 0.0678251

DEBUG cell=0 t=0.0672646→0.0678251 step=0.000560538 V=0.356271 u1=1.42346 u2=0.936974 u3=0 Iion=-1.35477
DEBUG cell=0 t=0.0672646→0.0678251 step=0.00504484 V=0.356271 u1=1.42411 u2=0.936482 u3=0 Iion=-1.35496
PIMPLE: iteration 1
DICPCG:  Solving for Vm, Initial residual = 0.000132196, Final residual = 4.35682e-16, No Iterations 5
PIMPLE: iteration 2
DICPCG:  Solving for Vm, Initial residual = 4.52083e-16, Final residual = 4.52083e-16, No Iterations 0
ExecutionTime = 1.11 s  ClockTime = 1 s

Time = 0.0683856

DEBUG cell=0 t=0.0678251→0.0683856 step=0.000560538 V=0.356365 u1=1.42411 u2=0.936482 u3=0 Iion=-1.35496
DEBUG cell=0 t=0.0678251→0.0683856 step=0.00504484 V=0.356365 u1=1.42477 u2=0.935991 u3=0 Iion=-1.35514
PIMPLE: iteration 1
DICPCG:  Solving for Vm, Initial residual = 0.000132128, Final residual = 4.35455e-16, No Iterations 5
PIMPLE: iteration 2
DICPCG:  Solving for Vm, Initial residual = 4.51078e-16, Final residual = 4.51078e-16, No Iterations 0
ExecutionTime = 1.11 s  ClockTime = 1 s

Time = 0.0689462

DEBUG cell=0 t=0.0683856→0.0689462 step=0.000560538 V=0.356459 u1=1.42477 u2=0.935991 u3=0 Iion=-1.35514
DEBUG cell=0 t=0.0683856→0.0689462 step=0.00504484 V=0.356459 u1=1.42542 u2=0.9355 u3=0 Iion=-1.35532
PIMPLE: iteration 1
DICPCG:  Solving for Vm, Initial residual = 0.000132059, Final residual = 4.35228e-16, No Iterations 5
PIMPLE: iteration 2
DICPCG:  Solving for Vm, Initial residual = 4.51476e-16, Final residual = 4.51476e-16, No Iterations 0
ExecutionTime = 1.12 s  ClockTime = 1 s

Time = 0.0695067

DEBUG cell=0 t=0.0689462→0.0695067 step=0.000560538 V=0.356553 u1=1.42542 u2=0.9355 u3=0 Iion=-1.35532
DEBUG cell=0 t=0.0689462→0.0695067 step=0.00504484 V=0.356553 u1=1.42607 u2=0.93501 u3=0 Iion=-1.3555
PIMPLE: iteration 1
DICPCG:  Solving for Vm, Initial residual = 0.00013199, Final residual = 4.35002e-16, No Iterations 5
PIMPLE: iteration 2
DICPCG:  Solving for Vm, Initial residual = 4.50803e-16, Final residual = 4.50803e-16, No Iterations 0
ExecutionTime = 1.13 s  ClockTime = 1 s

Time = 0.0700672

DEBUG cell=0 t=0.0695067→0.0700672 step=0.000560538 V=0.356648 u1=1.42607 u2=0.93501 u3=0 Iion=-1.3555
DEBUG cell=0 t=0.0695067→0.0700672 step=0.00504484 V=0.356648 u1=1.42673 u2=0.93452 u3=0 Iion=-1.35569
PIMPLE: iteration 1
DICPCG:  Solving for Vm, Initial residual = 0.000131922, Final residual = 4.34776e-16, No Iterations 5
PIMPLE: iteration 2
DICPCG:  Solving for Vm, Initial residual = 4.51551e-16, Final residual = 4.51551e-16, No Iterations 0
ExecutionTime = 1.13 s  ClockTime = 1 s

Time = 0.0706278

DEBUG cell=0 t=0.0700672→0.0706278 step=0.000560538 V=0.356742 u1=1.42673 u2=0.93452 u3=0 Iion=-1.35569
DEBUG cell=0 t=0.0700672→0.0706278 step=0.00504484 V=0.356742 u1=1.42738 u2=0.934031 u3=0 Iion=-1.35587
PIMPLE: iteration 1
DICPCG:  Solving for Vm, Initial residual = 0.000131853, Final residual = 4.3455e-16, No Iterations 5
PIMPLE: iteration 2
DICPCG:  Solving for Vm, Initial residual = 4.50488e-16, Final residual = 4.50488e-16, No Iterations 0
ExecutionTime = 1.14 s  ClockTime = 1 s

Time = 0.0711883

DEBUG cell=0 t=0.0706278→0.0711883 step=0.000560538 V=0.356836 u1=1.42738 u2=0.934031 u3=0 Iion=-1.35587
DEBUG cell=0 t=0.0706278→0.0711883 step=0.00504484 V=0.356836 u1=1.42803 u2=0.933542 u3=0 Iion=-1.35605
PIMPLE: iteration 1
DICPCG:  Solving for Vm, Initial residual = 0.000131785, Final residual = 4.34324e-16, No Iterations 5
PIMPLE: iteration 2
DICPCG:  Solving for Vm, Initial residual = 4.5089e-16, Final residual = 4.5089e-16, No Iterations 0
ExecutionTime = 1.15 s  ClockTime = 1 s

Time = 0.0717489

DEBUG cell=0 t=0.0711883→0.0717489 step=0.000560538 V=0.35693 u1=1.42803 u2=0.933542 u3=0 Iion=-1.35605
DEBUG cell=0 t=0.0711883→0.0717489 step=0.00504484 V=0.35693 u1=1.42869 u2=0.933054 u3=0 Iion=-1.35624
PIMPLE: iteration 1
DICPCG:  Solving for Vm, Initial residual = 0.000131716, Final residual = 4.34099e-16, No Iterations 5
PIMPLE: iteration 2
DICPCG:  Solving for Vm, Initial residual = 4.49716e-16, Final residual = 4.49716e-16, No Iterations 0
ExecutionTime = 1.16 s  ClockTime = 1 s

Time = 0.0723094

DEBUG cell=0 t=0.0717489→0.0723094 step=0.000560538 V=0.357024 u1=1.42869 u2=0.933054 u3=0 Iion=-1.35624
DEBUG cell=0 t=0.0717489→0.0723094 step=0.00504484 V=0.357024 u1=1.42934 u2=0.932566 u3=0 Iion=-1.35642
PIMPLE: iteration 1
DICPCG:  Solving for Vm, Initial residual = 0.000131648, Final residual = 4.33874e-16, No Iterations 5
PIMPLE: iteration 2
DICPCG:  Solving for Vm, Initial residual = 4.49247e-16, Final residual = 4.49247e-16, No Iterations 0
ExecutionTime = 1.16 s  ClockTime = 1 s

Time = 0.0728699

DEBUG cell=0 t=0.0723094→0.0728699 step=0.000560538 V=0.357118 u1=1.42934 u2=0.932566 u3=0 Iion=-1.35642
DEBUG cell=0 t=0.0723094→0.0728699 step=0.00504484 V=0.357118 u1=1.43 u2=0.932079 u3=0 Iion=-1.3566
PIMPLE: iteration 1
DICPCG:  Solving for Vm, Initial residual = 0.00013158, Final residual = 4.33649e-16, No Iterations 5
PIMPLE: iteration 2
DICPCG:  Solving for Vm, Initial residual = 4.49658e-16, Final residual = 4.49658e-16, No Iterations 0
ExecutionTime = 1.17 s  ClockTime = 1 s

Time = 0.0734305

DEBUG cell=0 t=0.0728699→0.0734305 step=0.000560538 V=0.357212 u1=1.43 u2=0.932079 u3=0 Iion=-1.3566
DEBUG cell=0 t=0.0728699→0.0734305 step=0.00504484 V=0.357212 u1=1.43065 u2=0.931592 u3=0 Iion=-1.35679
PIMPLE: iteration 1
DICPCG:  Solving for Vm, Initial residual = 0.000131512, Final residual = 4.33424e-16, No Iterations 5
PIMPLE: iteration 2
DICPCG:  Solving for Vm, Initial residual = 4.49688e-16, Final residual = 4.49688e-16, No Iterations 0
ExecutionTime = 1.18 s  ClockTime = 1 s

Time = 0.073991

DEBUG cell=0 t=0.0734305→0.073991 step=0.000560538 V=0.357306 u1=1.43065 u2=0.931592 u3=0 Iion=-1.35679
DEBUG cell=0 t=0.0734305→0.073991 step=0.00504484 V=0.357306 u1=1.4313 u2=0.931106 u3=0 Iion=-1.35697
PIMPLE: iteration 1
DICPCG:  Solving for Vm, Initial residual = 0.000131444, Final residual = 4.332e-16, No Iterations 5
PIMPLE: iteration 2
DICPCG:  Solving for Vm, Initial residual = 4.49521e-16, Final residual = 4.49521e-16, No Iterations 0
ExecutionTime = 1.19 s  ClockTime = 1 s

Time = 0.0745516

DEBUG cell=0 t=0.073991→0.0745516 step=0.000560538 V=0.3574 u1=1.4313 u2=0.931106 u3=0 Iion=-1.35697
DEBUG cell=0 t=0.073991→0.0745516 step=0.00504484 V=0.3574 u1=1.43196 u2=0.93062 u3=0 Iion=-1.35715
PIMPLE: iteration 1
DICPCG:  Solving for Vm, Initial residual = 0.000131376, Final residual = 4.32975e-16, No Iterations 5
PIMPLE: iteration 2
DICPCG:  Solving for Vm, Initial residual = 4.49345e-16, Final residual = 4.49345e-16, No Iterations 0
ExecutionTime = 1.19 s  ClockTime = 1 s

Time = 0.0751121

DEBUG cell=0 t=0.0745516→0.0751121 step=0.000560538 V=0.357494 u1=1.43196 u2=0.93062 u3=0 Iion=-1.35715
DEBUG cell=0 t=0.0745516→0.0751121 step=0.00504484 V=0.357494 u1=1.43261 u2=0.930135 u3=0 Iion=-1.35733
PIMPLE: iteration 1
DICPCG:  Solving for Vm, Initial residual = 0.000131308, Final residual = 4.32751e-16, No Iterations 5
PIMPLE: iteration 2
DICPCG:  Solving for Vm, Initial residual = 4.48786e-16, Final residual = 4.48786e-16, No Iterations 0
ExecutionTime = 1.2 s  ClockTime = 1 s

Time = 0.0756726

DEBUG cell=0 t=0.0751121→0.0756726 step=0.000560538 V=0.357588 u1=1.43261 u2=0.930135 u3=0 Iion=-1.35733
DEBUG cell=0 t=0.0751121→0.0756726 step=0.00504484 V=0.357588 u1=1.43327 u2=0.92965 u3=0 Iion=-1.35752
PIMPLE: iteration 1
DICPCG:  Solving for Vm, Initial residual = 0.00013124, Final residual = 4.32528e-16, No Iterations 5
PIMPLE: iteration 2
DICPCG:  Solving for Vm, Initial residual = 4.48261e-16, Final residual = 4.48261e-16, No Iterations 0
ExecutionTime = 1.21 s  ClockTime = 1 s

Time = 0.0762332

DEBUG cell=0 t=0.0756726→0.0762332 step=0.000560538 V=0.357682 u1=1.43327 u2=0.92965 u3=0 Iion=-1.35752
DEBUG cell=0 t=0.0756726→0.0762332 step=0.00504484 V=0.357682 u1=1.43392 u2=0.929166 u3=0 Iion=-1.3577
PIMPLE: iteration 1
DICPCG:  Solving for Vm, Initial residual = 0.000131172, Final residual = 4.32304e-16, No Iterations 5
PIMPLE: iteration 2
DICPCG:  Solving for Vm, Initial residual = 4.48443e-16, Final residual = 4.48443e-16, No Iterations 0
ExecutionTime = 1.22 s  ClockTime = 1 s

Time = 0.0767937

DEBUG cell=0 t=0.0762332→0.0767937 step=0.000560538 V=0.357775 u1=1.43392 u2=0.929166 u3=0 Iion=-1.3577
DEBUG cell=0 t=0.0762332→0.0767937 step=0.00504484 V=0.357775 u1=1.43457 u2=0.928683 u3=0 Iion=-1.35788
PIMPLE: iteration 1
DICPCG:  Solving for Vm, Initial residual = 0.000131104, Final residual = 4.32081e-16, No Iterations 5
PIMPLE: iteration 2
DICPCG:  Solving for Vm, Initial residual = 4.48382e-16, Final residual = 4.48382e-16, No Iterations 0
ExecutionTime = 1.23 s  ClockTime = 1 s

Time = 0.0773542

DEBUG cell=0 t=0.0767937→0.0773542 step=0.000560538 V=0.357869 u1=1.43457 u2=0.928683 u3=0 Iion=-1.35788
DEBUG cell=0 t=0.0767937→0.0773542 step=0.00504484 V=0.357869 u1=1.43523 u2=0.928199 u3=0 Iion=-1.35807
PIMPLE: iteration 1
DICPCG:  Solving for Vm, Initial residual = 0.000131037, Final residual = 4.31858e-16, No Iterations 5
PIMPLE: iteration 2
DICPCG:  Solving for Vm, Initial residual = 4.46981e-16, Final residual = 4.46981e-16, No Iterations 0
ExecutionTime = 1.24 s  ClockTime = 1 s

Time = 0.0779148

DEBUG cell=0 t=0.0773542→0.0779148 step=0.000560538 V=0.357963 u1=1.43523 u2=0.928199 u3=0 Iion=-1.35807
DEBUG cell=0 t=0.0773542→0.0779148 step=0.00504484 V=0.357963 u1=1.43588 u2=0.927717 u3=0 Iion=-1.35825
PIMPLE: iteration 1
DICPCG:  Solving for Vm, Initial residual = 0.000130969, Final residual = 4.31635e-16, No Iterations 5
PIMPLE: iteration 2
DICPCG:  Solving for Vm, Initial residual = 4.4762e-16, Final residual = 4.4762e-16, No Iterations 0
ExecutionTime = 1.25 s  ClockTime = 1 s

Time = 0.0784753

DEBUG cell=0 t=0.0779148→0.0784753 step=0.000560538 V=0.358057 u1=1.43588 u2=0.927717 u3=0 Iion=-1.35825
DEBUG cell=0 t=0.0779148→0.0784753 step=0.00504484 V=0.358057 u1=1.43653 u2=0.927235 u3=0 Iion=-1.35843
PIMPLE: iteration 1
DICPCG:  Solving for Vm, Initial residual = 0.000130901, Final residual = 4.31412e-16, No Iterations 5
PIMPLE: iteration 2
DICPCG:  Solving for Vm, Initial residual = 4.4721e-16, Final residual = 4.4721e-16, No Iterations 0
ExecutionTime = 1.25 s  ClockTime = 1 s

Time = 0.0790359

DEBUG cell=0 t=0.0784753→0.0790359 step=0.000560538 V=0.358151 u1=1.43653 u2=0.927235 u3=0 Iion=-1.35843
DEBUG cell=0 t=0.0784753→0.0790359 step=0.00504484 V=0.358151 u1=1.43719 u2=0.926753 u3=0 Iion=-1.35862
PIMPLE: iteration 1
DICPCG:  Solving for Vm, Initial residual = 0.000130834, Final residual = 4.3119e-16, No Iterations 5
PIMPLE: iteration 2
DICPCG:  Solving for Vm, Initial residual = 4.48054e-16, Final residual = 4.48054e-16, No Iterations 0
ExecutionTime = 1.26 s  ClockTime = 1 s

Time = 0.0795964

DEBUG cell=0 t=0.0790359→0.0795964 step=0.000560538 V=0.358244 u1=1.43719 u2=0.926753 u3=0 Iion=-1.35862
DEBUG cell=0 t=0.0790359→0.0795964 step=0.00504484 V=0.358244 u1=1.43784 u2=0.926272 u3=0 Iion=-1.3588
PIMPLE: iteration 1
DICPCG:  Solving for Vm, Initial residual = 0.000130767, Final residual = 4.30968e-16, No Iterations 5
PIMPLE: iteration 2
DICPCG:  Solving for Vm, Initial residual = 4.46496e-16, Final residual = 4.46496e-16, No Iterations 0
ExecutionTime = 1.27 s  ClockTime = 1 s

Time = 0.0801569

DEBUG cell=0 t=0.0795964→0.0801569 step=0.000560538 V=0.358338 u1=1.43784 u2=0.926272 u3=0 Iion=-1.3588
DEBUG cell=0 t=0.0795964→0.0801569 step=0.00504484 V=0.358338 u1=1.43849 u2=0.925791 u3=0 Iion=-1.35898
PIMPLE: iteration 1
DICPCG:  Solving for Vm, Initial residual = 0.000130699, Final residual = 4.30746e-16, No Iterations 5
PIMPLE: iteration 2
DICPCG:  Solving for Vm, Initial residual = 4.4642e-16, Final residual = 4.4642e-16, No Iterations 0
ExecutionTime = 1.27 s  ClockTime = 1 s

Time = 0.0807175

DEBUG cell=0 t=0.0801569→0.0807175 step=0.000560538 V=0.358432 u1=1.43849 u2=0.925791 u3=0 Iion=-1.35898
DEBUG cell=0 t=0.0801569→0.0807175 step=0.00504484 V=0.358432 u1=1.43915 u2=0.925311 u3=0 Iion=-1.35916
PIMPLE: iteration 1
DICPCG:  Solving for Vm, Initial residual = 0.000130632, Final residual = 4.30524e-16, No Iterations 5
PIMPLE: iteration 2
DICPCG:  Solving for Vm, Initial residual = 4.467e-16, Final residual = 4.467e-16, No Iterations 0
ExecutionTime = 1.28 s  ClockTime = 1 s

Time = 0.081278

DEBUG cell=0 t=0.0807175→0.081278 step=0.000560538 V=0.358525 u1=1.43915 u2=0.925311 u3=0 Iion=-1.35916
DEBUG cell=0 t=0.0807175→0.081278 step=0.00504484 V=0.358525 u1=1.4398 u2=0.924831 u3=0 Iion=-1.35935
PIMPLE: iteration 1
DICPCG:  Solving for Vm, Initial residual = 0.000130565, Final residual = 4.30303e-16, No Iterations 5
PIMPLE: iteration 2
DICPCG:  Solving for Vm, Initial residual = 4.46318e-16, Final residual = 4.46318e-16, No Iterations 0
ExecutionTime = 1.29 s  ClockTime = 1 s

Time = 0.0818385

DEBUG cell=0 t=0.081278→0.0818385 step=0.000560538 V=0.358619 u1=1.4398 u2=0.924831 u3=0 Iion=-1.35935
DEBUG cell=0 t=0.081278→0.0818385 step=0.00504484 V=0.358619 u1=1.44045 u2=0.924352 u3=0 Iion=-1.35953
PIMPLE: iteration 1
DICPCG:  Solving for Vm, Initial residual = 0.000130498, Final residual = 4.30082e-16, No Iterations 5
PIMPLE: iteration 2
DICPCG:  Solving for Vm, Initial residual = 4.47031e-16, Final residual = 4.47031e-16, No Iterations 0
ExecutionTime = 1.3 s  ClockTime = 1 s

Time = 0.0823991

DEBUG cell=0 t=0.0818385→0.0823991 step=0.000560538 V=0.358713 u1=1.44045 u2=0.924352 u3=0 Iion=-1.35953
DEBUG cell=0 t=0.0818385→0.0823991 step=0.00504484 V=0.358713 u1=1.44111 u2=0.923873 u3=0 Iion=-1.35971
PIMPLE: iteration 1
DICPCG:  Solving for Vm, Initial residual = 0.000130431, Final residual = 4.29861e-16, No Iterations 5
PIMPLE: iteration 2
DICPCG:  Solving for Vm, Initial residual = 4.4609e-16, Final residual = 4.4609e-16, No Iterations 0
ExecutionTime = 1.3 s  ClockTime = 1 s

Time = 0.0829596

DEBUG cell=0 t=0.0823991→0.0829596 step=0.000560538 V=0.358806 u1=1.44111 u2=0.923873 u3=0 Iion=-1.35971
DEBUG cell=0 t=0.0823991→0.0829596 step=0.00504484 V=0.358806 u1=1.44176 u2=0.923395 u3=0 Iion=-1.3599
PIMPLE: iteration 1
DICPCG:  Solving for Vm, Initial residual = 0.000130364, Final residual = 4.2964e-16, No Iterations 5
PIMPLE: iteration 2
DICPCG:  Solving for Vm, Initial residual = 4.45911e-16, Final residual = 4.45911e-16, No Iterations 0
ExecutionTime = 1.31 s  ClockTime = 1 s

Time = 0.0835202

DEBUG cell=0 t=0.0829596→0.0835202 step=0.000560538 V=0.3589 u1=1.44176 u2=0.923395 u3=0 Iion=-1.3599
DEBUG cell=0 t=0.0829596→0.0835202 step=0.00504484 V=0.3589 u1=1.44241 u2=0.922918 u3=0 Iion=-1.36008
PIMPLE: iteration 1
DICPCG:  Solving for Vm, Initial residual = 0.000130297, Final residual = 4.29419e-16, No Iterations 5
PIMPLE: iteration 2
DICPCG:  Solving for Vm, Initial residual = 4.4594e-16, Final residual = 4.4594e-16, No Iterations 0
ExecutionTime = 1.32 s  ClockTime = 1 s

Time = 0.0840807

DEBUG cell=0 t=0.0835202→0.0840807 step=0.000560538 V=0.358993 u1=1.44241 u2=0.922918 u3=0 Iion=-1.36008
DEBUG cell=0 t=0.0835202→0.0840807 step=0.00504484 V=0.358993 u1=1.44307 u2=0.92244 u3=0 Iion=-1.36026
PIMPLE: iteration 1
DICPCG:  Solving for Vm, Initial residual = 0.00013023, Final residual = 4.29199e-16, No Iterations 5
PIMPLE: iteration 2
DICPCG:  Solving for Vm, Initial residual = 4.45126e-16, Final residual = 4.45126e-16, No Iterations 0
ExecutionTime = 1.34 s  ClockTime = 1 s

Time = 0.0846412

[...]
ExecutionTime = 2.66 s  ClockTime = 3 s

Time = 0.179372

DEBUG cell=0 t=0.178812→0.179372 step=0.000560538 V=0.374565 u1=1.55314 u2=0.848319 u3=0 Iion=-1.39113
DEBUG cell=0 t=0.178812→0.179372 step=0.00504484 V=0.374565 u1=1.55379 u2=0.847916 u3=0 Iion=-1.39132
PIMPLE: iteration 1
DICPCG:  Solving for Vm, Initial residual = 0.000119794, Final residual = 3.94792e-16, No Iterations 5
PIMPLE: iteration 2
DICPCG:  Solving for Vm, Initial residual = 4.13583e-16, Final residual = 4.13583e-16, No Iterations 0
ExecutionTime = 2.68 s  ClockTime = 3 s

Time = 0.179933

DEBUG cell=0 t=0.179372→0.179933 step=0.000560538 V=0.374655 u1=1.55379 u2=0.847916 u3=0 Iion=-1.39132
DEBUG cell=0 t=0.179372→0.179933 step=0.00504484 V=0.374655 u1=1.55444 u2=0.847513 u3=0 Iion=-1.3915
PIMPLE: iteration 1
DICPCG:  Solving for Vm, Initial residual = 0.000119737, Final residual = 3.94606e-16, No Iterations 5
PIMPLE: iteration 2
DICPCG:  Solving for Vm, Initial residual = 4.13837e-16, Final residual = 4.13837e-16, No Iterations 0
ExecutionTime = 2.69 s  ClockTime = 3 s

Time = 0.180493

DEBUG cell=0 t=0.179933→0.180493 step=0.000560538 V=0.374745 u1=1.55444 u2=0.847513 u3=0 Iion=-1.3915
DEBUG cell=0 t=0.179933→0.180493 step=0.00504484 V=0.374745 u1=1.55509 u2=0.847111 u3=0 Iion=-1.39168
PIMPLE: iteration 1
DICPCG:  Solving for Vm, Initial residual = 0.000119681, Final residual = 3.9442e-16, No Iterations 5
PIMPLE: iteration 2
DICPCG:  Solving for Vm, Initial residual = 4.13198e-16, Final residual = 4.13198e-16, No Iterations 0
ExecutionTime = 2.69 s  ClockTime = 3 s

Time = 0.181054

DEBUG cell=0 t=0.180493→0.181054 step=0.000560538 V=0.374834 u1=1.55509 u2=0.847111 u3=0 Iion=-1.39168
DEBUG cell=0 t=0.180493→0.181054 step=0.00504484 V=0.374834 u1=1.55574 u2=0.846709 u3=0 Iion=-1.39186
PIMPLE: iteration 1
DICPCG:  Solving for Vm, Initial residual = 0.000119625, Final residual = 3.94234e-16, No Iterations 5
PIMPLE: iteration 2
DICPCG:  Solving for Vm, Initial residual = 4.12349e-16, Final residual = 4.12349e-16, No Iterations 0
ExecutionTime = 2.7 s  ClockTime = 3 s

Time = 0.181614

DEBUG cell=0 t=0.181054→0.181614 step=0.000560538 V=0.374924 u1=1.55574 u2=0.846709 u3=0 Iion=-1.39186
DEBUG cell=0 t=0.181054→0.181614 step=0.00504484 V=0.374924 u1=1.55639 u2=0.846307 u3=0 Iion=-1.39205
PIMPLE: iteration 1
DICPCG:  Solving for Vm, Initial residual = 0.000119569, Final residual = 3.94049e-16, No Iterations 5
PIMPLE: iteration 2
DICPCG:  Solving for Vm, Initial residual = 4.134e-16, Final residual = 4.134e-16, No Iterations 0
ExecutionTime = 2.71 s  ClockTime = 3 s

Time = 0.182175

DEBUG cell=0 t=0.181614→0.182175 step=0.000560538 V=0.375014 u1=1.55639 u2=0.846307 u3=0 Iion=-1.39205
DEBUG cell=0 t=0.181614→0.182175 step=0.00504484 V=0.375014 u1=1.55703 u2=0.845906 u3=0 Iion=-1.39223
PIMPLE: iteration 1
DICPCG:  Solving for Vm, Initial residual = 0.000119512, Final residual = 3.93864e-16, No Iterations 5
PIMPLE: iteration 2
DICPCG:  Solving for Vm, Initial residual = 4.12084e-16, Final residual = 4.12084e-16, No Iterations 0
ExecutionTime = 2.71 s  ClockTime = 3 s

Time = 0.182735

DEBUG cell=0 t=0.182175→0.182735 step=0.000560538 V=0.375103 u1=1.55703 u2=0.845906 u3=0 Iion=-1.39223
DEBUG cell=0 t=0.182175→0.182735 step=0.00504484 V=0.375103 u1=1.55768 u2=0.845505 u3=0 Iion=-1.39241
PIMPLE: iteration 1
DICPCG:  Solving for Vm, Initial residual = 0.000119456, Final residual = 3.93678e-16, No Iterations 5
PIMPLE: iteration 2
DICPCG:  Solving for Vm, Initial residual = 4.11628e-16, Final residual = 4.11628e-16, No Iterations 0
ExecutionTime = 2.72 s  ClockTime = 3 s

Time = 0.183296

DEBUG cell=0 t=0.182735→0.183296 step=0.000560538 V=0.375193 u1=1.55768 u2=0.845505 u3=0 Iion=-1.39241
DEBUG cell=0 t=0.182735→0.183296 step=0.00504484 V=0.375193 u1=1.55833 u2=0.845105 u3=0 Iion=-1.39259
PIMPLE: iteration 1
DICPCG:  Solving for Vm, Initial residual = 0.0001194, Final residual = 3.93494e-16, No Iterations 5
PIMPLE: iteration 2
DICPCG:  Solving for Vm, Initial residual = 4.12331e-16, Final residual = 4.12331e-16, No Iterations 0
ExecutionTime = 2.73 s  ClockTime = 3 s

Time = 0.183856

DEBUG cell=0 t=0.183296→0.183856 step=0.000560538 V=0.375283 u1=1.55833 u2=0.845105 u3=0 Iion=-1.39259
DEBUG cell=0 t=0.183296→0.183856 step=0.00504484 V=0.375283 u1=1.55898 u2=0.844704 u3=0 Iion=-1.39277
PIMPLE: iteration 1
DICPCG:  Solving for Vm, Initial residual = 0.000119344, Final residual = 3.93309e-16, No Iterations 5
PIMPLE: iteration 2
DICPCG:  Solving for Vm, Initial residual = 4.12462e-16, Final residual = 4.12462e-16, No Iterations 0
ExecutionTime = 2.74 s  ClockTime = 3 s

Time = 0.184417

DEBUG cell=0 t=0.183856→0.184417 step=0.000560538 V=0.375372 u1=1.55898 u2=0.844704 u3=0 Iion=-1.39277
DEBUG cell=0 t=0.183856→0.184417 step=0.00504484 V=0.375372 u1=1.55963 u2=0.844305 u3=0 Iion=-1.39296
PIMPLE: iteration 1
DICPCG:  Solving for Vm, Initial residual = 0.000119288, Final residual = 3.93124e-16, No Iterations 5
PIMPLE: iteration 2
DICPCG:  Solving for Vm, Initial residual = 4.11492e-16, Final residual = 4.11492e-16, No Iterations 0
ExecutionTime = 2.74 s  ClockTime = 3 s

Time = 0.184978

DEBUG cell=0 t=0.184417→0.184978 step=0.000560538 V=0.375462 u1=1.55963 u2=0.844305 u3=0 Iion=-1.39296
DEBUG cell=0 t=0.184417→0.184978 step=0.00504484 V=0.375462 u1=1.56028 u2=0.843905 u3=0 Iion=-1.39314
PIMPLE: iteration 1
DICPCG:  Solving for Vm, Initial residual = 0.000119232, Final residual = 3.9294e-16, No Iterations 5
PIMPLE: iteration 2
DICPCG:  Solving for Vm, Initial residual = 4.12297e-16, Final residual = 4.12297e-16, No Iterations 0
ExecutionTime = 2.75 s  ClockTime = 3 s

Time = 0.185538

DEBUG cell=0 t=0.184978→0.185538 step=0.000560538 V=0.375551 u1=1.56028 u2=0.843905 u3=0 Iion=-1.39314
DEBUG cell=0 t=0.184978→0.185538 step=0.00504484 V=0.375551 u1=1.56093 u2=0.843506 u3=0 Iion=-1.39332
PIMPLE: iteration 1
DICPCG:  Solving for Vm, Initial residual = 0.000119176, Final residual = 3.92756e-16, No Iterations 5
PIMPLE: iteration 2
DICPCG:  Solving for Vm, Initial residual = 4.10962e-16, Final residual = 4.10962e-16, No Iterations 0
ExecutionTime = 2.76 s  ClockTime = 3 s

Time = 0.186099

DEBUG cell=0 t=0.185538→0.186099 step=0.000560538 V=0.375641 u1=1.56093 u2=0.843506 u3=0 Iion=-1.39332
DEBUG cell=0 t=0.185538→0.186099 step=0.00504484 V=0.375641 u1=1.56158 u2=0.843108 u3=0 Iion=-1.3935
PIMPLE: iteration 1
DICPCG:  Solving for Vm, Initial residual = 0.000119121, Final residual = 3.92572e-16, No Iterations 5
PIMPLE: iteration 2
DICPCG:  Solving for Vm, Initial residual = 4.11791e-16, Final residual = 4.11791e-16, No Iterations 0
ExecutionTime = 2.76 s  ClockTime = 3 s

Time = 0.186659

DEBUG cell=0 t=0.186099→0.186659 step=0.000560538 V=0.37573 u1=1.56158 u2=0.843108 u3=0 Iion=-1.3935
DEBUG cell=0 t=0.186099→0.186659 step=0.00504484 V=0.37573 u1=1.56223 u2=0.84271 u3=0 Iion=-1.39369
PIMPLE: iteration 1
DICPCG:  Solving for Vm, Initial residual = 0.000119065, Final residual = 3.92388e-16, No Iterations 5
PIMPLE: iteration 2
DICPCG:  Solving for Vm, Initial residual = 4.10824e-16, Final residual = 4.10824e-16, No Iterations 0
ExecutionTime = 2.77 s  ClockTime = 3 s

Time = 0.18722

DEBUG cell=0 t=0.186659→0.18722 step=0.000560538 V=0.37582 u1=1.56223 u2=0.84271 u3=0 Iion=-1.39369
DEBUG cell=0 t=0.186659→0.18722 step=0.00504484 V=0.37582 u1=1.56288 u2=0.842312 u3=0 Iion=-1.39387
PIMPLE: iteration 1
DICPCG:  Solving for Vm, Initial residual = 0.000119009, Final residual = 3.92204e-16, No Iterations 5
PIMPLE: iteration 2
DICPCG:  Solving for Vm, Initial residual = 4.10545e-16, Final residual = 4.10545e-16, No Iterations 0
ExecutionTime = 2.78 s  ClockTime = 3 s

Time = 0.18778

DEBUG cell=0 t=0.18722→0.18778 step=0.000560538 V=0.375909 u1=1.56288 u2=0.842312 u3=0 Iion=-1.39387
DEBUG cell=0 t=0.18722→0.18778 step=0.00504484 V=0.375909 u1=1.56353 u2=0.841914 u3=0 Iion=-1.39405
PIMPLE: iteration 1
DICPCG:  Solving for Vm, Initial residual = 0.000118953, Final residual = 3.92021e-16, No Iterations 5
PIMPLE: iteration 2
DICPCG:  Solving for Vm, Initial residual = 4.10996e-16, Final residual = 4.10996e-16, No Iterations 0
ExecutionTime = 2.8 s  ClockTime = 3 s

Time = 0.188341

DEBUG cell=0 t=0.18778→0.188341 step=0.000560538 V=0.375999 u1=1.56353 u2=0.841914 u3=0 Iion=-1.39405
DEBUG cell=0 t=0.18778→0.188341 step=0.00504484 V=0.375999 u1=1.56417 u2=0.841517 u3=0 Iion=-1.39423
PIMPLE: iteration 1
DICPCG:  Solving for Vm, Initial residual = 0.000118898, Final residual = 3.91837e-16, No Iterations 5
PIMPLE: iteration 2
DICPCG:  Solving for Vm, Initial residual = 4.09675e-16, Final residual = 4.09675e-16, No Iterations 0
ExecutionTime = 2.8 s  ClockTime = 3 s

Time = 0.188901

DEBUG cell=0 t=0.188341→0.188901 step=0.000560538 V=0.376088 u1=1.56417 u2=0.841517 u3=0 Iion=-1.39423
DEBUG cell=0 t=0.188341→0.188901 step=0.00504484 V=0.376088 u1=1.56482 u2=0.841121 u3=0 Iion=-1.39441
PIMPLE: iteration 1
DICPCG:  Solving for Vm, Initial residual = 0.000118842, Final residual = 3.91654e-16, No Iterations 5
PIMPLE: iteration 2
DICPCG:  Solving for Vm, Initial residual = 4.1087e-16, Final residual = 4.1087e-16, No Iterations 0
ExecutionTime = 2.81 s  ClockTime = 3 s

Time = 0.189462

DEBUG cell=0 t=0.188901→0.189462 step=0.000560538 V=0.376177 u1=1.56482 u2=0.841121 u3=0 Iion=-1.39441
DEBUG cell=0 t=0.188901→0.189462 step=0.00504484 V=0.376177 u1=1.56547 u2=0.840724 u3=0 Iion=-1.3946
PIMPLE: iteration 1
DICPCG:  Solving for Vm, Initial residual = 0.000118787, Final residual = 3.91471e-16, No Iterations 5
PIMPLE: iteration 2
DICPCG:  Solving for Vm, Initial residual = 4.09703e-16, Final residual = 4.09703e-16, No Iterations 0
ExecutionTime = 2.82 s  ClockTime = 3 s

Time = 0.190022

DEBUG cell=0 t=0.189462→0.190022 step=0.000560538 V=0.376267 u1=1.56547 u2=0.840724 u3=0 Iion=-1.3946
DEBUG cell=0 t=0.189462→0.190022 step=0.00504484 V=0.376267 u1=1.56612 u2=0.840328 u3=0 Iion=-1.39478
PIMPLE: iteration 1
DICPCG:  Solving for Vm, Initial residual = 0.000118731, Final residual = 3.91288e-16, No Iterations 5
PIMPLE: iteration 2
DICPCG:  Solving for Vm, Initial residual = 4.1006e-16, Final residual = 4.1006e-16, No Iterations 0
ExecutionTime = 2.82 s  ClockTime = 3 s

Time = 0.190583

DEBUG cell=0 t=0.190022→0.190583 step=0.000560538 V=0.376356 u1=1.56612 u2=0.840328 u3=0 Iion=-1.39478
DEBUG cell=0 t=0.190022→0.190583 step=0.00504484 V=0.376356 u1=1.56677 u2=0.839933 u3=0 Iion=-1.39496
PIMPLE: iteration 1
DICPCG:  Solving for Vm, Initial residual = 0.000118676, Final residual = 3.91106e-16, No Iterations 5
PIMPLE: iteration 2
DICPCG:  Solving for Vm, Initial residual = 4.10516e-16, Final residual = 4.10516e-16, No Iterations 0
ExecutionTime = 2.83 s  ClockTime = 3 s

Time = 0.191143

DEBUG cell=0 t=0.190583→0.191143 step=0.000560538 V=0.376446 u1=1.56677 u2=0.839933 u3=0 Iion=-1.39496
DEBUG cell=0 t=0.190583→0.191143 step=0.00504484 V=0.376446 u1=1.56742 u2=0.839538 u3=0 Iion=-1.39514
PIMPLE: iteration 1
DICPCG:  Solving for Vm, Initial residual = 0.000118621, Final residual = 3.90923e-16, No Iterations 5
PIMPLE: iteration 2
DICPCG:  Solving for Vm, Initial residual = 4.09207e-16, Final residual = 4.09207e-16, No Iterations 0
ExecutionTime = 2.84 s  ClockTime = 3 s

Time = 0.191704

DEBUG cell=0 t=0.191143→0.191704 step=0.000560538 V=0.376535 u1=1.56742 u2=0.839538 u3=0 Iion=-1.39514
DEBUG cell=0 t=0.191143→0.191704 step=0.00504484 V=0.376535 u1=1.56807 u2=0.839143 u3=0 Iion=-1.39532
PIMPLE: iteration 1
DICPCG:  Solving for Vm, Initial residual = 0.000118565, Final residual = 3.90741e-16, No Iterations 5
PIMPLE: iteration 2
DICPCG:  Solving for Vm, Initial residual = 4.09743e-16, Final residual = 4.09743e-16, No Iterations 0
ExecutionTime = 2.84 s  ClockTime = 3 s

Time = 0.192265

DEBUG cell=0 t=0.191704→0.192265 step=0.000560538 V=0.376624 u1=1.56807 u2=0.839143 u3=0 Iion=-1.39532
DEBUG cell=0 t=0.191704→0.192265 step=0.00504484 V=0.376624 u1=1.56872 u2=0.838748 u3=0 Iion=-1.39551
PIMPLE: iteration 1
DICPCG:  Solving for Vm, Initial residual = 0.00011851, Final residual = 3.90559e-16, No Iterations 5
PIMPLE: iteration 2
DICPCG:  Solving for Vm, Initial residual = 4.09489e-16, Final residual = 4.09489e-16, No Iterations 0
ExecutionTime = 2.85 s  ClockTime = 3 s

Time = 0.192825

DEBUG cell=0 t=0.192265→0.192825 step=0.000560538 V=0.376713 u1=1.56872 u2=0.838748 u3=0 Iion=-1.39551
DEBUG cell=0 t=0.192265→0.192825 step=0.00504484 V=0.376713 u1=1.56937 u2=0.838354 u3=0 Iion=-1.39569
PIMPLE: iteration 1
DICPCG:  Solving for Vm, Initial residual = 0.000118455, Final residual = 3.90377e-16, No Iterations 5
PIMPLE: iteration 2
DICPCG:  Solving for Vm, Initial residual = 4.08692e-16, Final residual = 4.08692e-16, No Iterations 0
ExecutionTime = 2.86 s  ClockTime = 3 s

Time = 0.193386

DEBUG cell=0 t=0.192825→0.193386 step=0.000560538 V=0.376803 u1=1.56937 u2=0.838354 u3=0 Iion=-1.39569
DEBUG cell=0 t=0.192825→0.193386 step=0.00504484 V=0.376803 u1=1.57002 u2=0.837961 u3=0 Iion=-1.39587
PIMPLE: iteration 1
DICPCG:  Solving for Vm, Initial residual = 0.0001184, Final residual = 3.90195e-16, No Iterations 5
PIMPLE: iteration 2
DICPCG:  Solving for Vm, Initial residual = 4.09178e-16, Final residual = 4.09178e-16, No Iterations 0
ExecutionTime = 2.87 s  ClockTime = 3 s

Time = 0.193946

DEBUG cell=0 t=0.193386→0.193946 step=0.000560538 V=0.376892 u1=1.57002 u2=0.837961 u3=0 Iion=-1.39587
DEBUG cell=0 t=0.193386→0.193946 step=0.00504484 V=0.376892 u1=1.57066 u2=0.837567 u3=0 Iion=-1.39605
PIMPLE: iteration 1
DICPCG:  Solving for Vm, Initial residual = 0.000118345, Final residual = 3.90014e-16, No Iterations 5
PIMPLE: iteration 2
DICPCG:  Solving for Vm, Initial residual = 4.09428e-16, Final residual = 4.09428e-16, No Iterations 0
ExecutionTime = 2.87 s  ClockTime = 3 s

Time = 0.194507

DEBUG cell=0 t=0.193946→0.194507 step=0.000560538 V=0.376981 u1=1.57066 u2=0.837567 u3=0 Iion=-1.39605
DEBUG cell=0 t=0.193946→0.194507 step=0.00504484 V=0.376981 u1=1.57131 u2=0.837174 u3=0 Iion=-1.39623
PIMPLE: iteration 1
DICPCG:  Solving for Vm, Initial residual = 0.00011829, Final residual = 3.89832e-16, No Iterations 5
PIMPLE: iteration 2
DICPCG:  Solving for Vm, Initial residual = 4.08667e-16, Final residual = 4.08667e-16, No Iterations 0
ExecutionTime = 2.88 s  ClockTime = 3 s

Time = 0.195067

DEBUG cell=0 t=0.194507→0.195067 step=0.000560538 V=0.37707 u1=1.57131 u2=0.837174 u3=0 Iion=-1.39623
DEBUG cell=0 t=0.194507→0.195067 step=0.00504484 V=0.37707 u1=1.57196 u2=0.836782 u3=0 Iion=-1.39642
PIMPLE: iteration 1
DICPCG:  Solving for Vm, Initial residual = 0.000118235, Final residual = 3.89651e-16, No Iterations 5
PIMPLE: iteration 2
DICPCG:  Solving for Vm, Initial residual = 4.08346e-16, Final residual = 4.08346e-16, No Iterations 0
ExecutionTime = 2.89 s  ClockTime = 3 s

Time = 0.195628

DEBUG cell=0 t=0.195067→0.195628 step=0.000560538 V=0.377159 u1=1.57196 u2=0.836782 u3=0 Iion=-1.39642
DEBUG cell=0 t=0.195067→0.195628 step=0.00504484 V=0.377159 u1=1.57261 u2=0.836389 u3=0 Iion=-1.3966
PIMPLE: iteration 1
DICPCG:  Solving for Vm, Initial residual = 0.00011818, Final residual = 3.8947e-16, No Iterations 5
PIMPLE: iteration 2
DICPCG:  Solving for Vm, Initial residual = 4.08567e-16, Final residual = 4.08567e-16, No Iterations 0
ExecutionTime = 2.89 s  ClockTime = 3 s

Time = 0.196188

DEBUG cell=0 t=0.195628→0.196188 step=0.000560538 V=0.377249 u1=1.57261 u2=0.836389 u3=0 Iion=-1.3966
DEBUG cell=0 t=0.195628→0.196188 step=0.00504484 V=0.377249 u1=1.57326 u2=0.835998 u3=0 Iion=-1.39678
PIMPLE: iteration 1
DICPCG:  Solving for Vm, Initial residual = 0.000118125, Final residual = 3.89289e-16, No Iterations 5
PIMPLE: iteration 2
DICPCG:  Solving for Vm, Initial residual = 4.08983e-16, Final residual = 4.08983e-16, No Iterations 0
ExecutionTime = 2.9 s  ClockTime = 3 s

Time = 0.196749

DEBUG cell=0 t=0.196188→0.196749 step=0.000560538 V=0.377338 u1=1.57326 u2=0.835998 u3=0 Iion=-1.39678
DEBUG cell=0 t=0.196188→0.196749 step=0.00504484 V=0.377338 u1=1.57391 u2=0.835606 u3=0 Iion=-1.39696
PIMPLE: iteration 1
DICPCG:  Solving for Vm, Initial residual = 0.00011807, Final residual = 3.89108e-16, No Iterations 5
PIMPLE: iteration 2
DICPCG:  Solving for Vm, Initial residual = 4.07542e-16, Final residual = 4.07542e-16, No Iterations 0
ExecutionTime = 2.91 s  ClockTime = 3 s

Time = 0.197309

DEBUG cell=0 t=0.196749→0.197309 step=0.000560538 V=0.377427 u1=1.57391 u2=0.835606 u3=0 Iion=-1.39696
DEBUG cell=0 t=0.196749→0.197309 step=0.00504484 V=0.377427 u1=1.57456 u2=0.835215 u3=0 Iion=-1.39715
PIMPLE: iteration 1
DICPCG:  Solving for Vm, Initial residual = 0.000118015, Final residual = 3.88927e-16, No Iterations 5
PIMPLE: iteration 2
DICPCG:  Solving for Vm, Initial residual = 4.07029e-16, Final residual = 4.07029e-16, No Iterations 0
ExecutionTime = 2.92 s  ClockTime = 3 s

Time = 0.19787

DEBUG cell=0 t=0.197309→0.19787 step=0.000560538 V=0.377516 u1=1.57456 u2=0.835215 u3=0 Iion=-1.39715
DEBUG cell=0 t=0.197309→0.19787 step=0.00504484 V=0.377516 u1=1.57521 u2=0.834824 u3=0 Iion=-1.39733
PIMPLE: iteration 1
DICPCG:  Solving for Vm, Initial residual = 0.00011796, Final residual = 3.88747e-16, No Iterations 5
PIMPLE: iteration 2
DICPCG:  Solving for Vm, Initial residual = 4.07623e-16, Final residual = 4.07623e-16, No Iterations 0
ExecutionTime = 2.93 s  ClockTime = 3 s

Time = 0.19843

DEBUG cell=0 t=0.19787→0.19843 step=0.000560538 V=0.377605 u1=1.57521 u2=0.834824 u3=0 Iion=-1.39733
DEBUG cell=0 t=0.19787→0.19843 step=0.00504484 V=0.377605 u1=1.57585 u2=0.834434 u3=0 Iion=-1.39751
PIMPLE: iteration 1
DICPCG:  Solving for Vm, Initial residual = 0.000117906, Final residual = 3.88567e-16, No Iterations 5
PIMPLE: iteration 2
DICPCG:  Solving for Vm, Initial residual = 4.08345e-16, Final residual = 4.08345e-16, No Iterations 0
ExecutionTime = 2.94 s  ClockTime = 3 s

Time = 0.198991

DEBUG cell=0 t=0.19843→0.198991 step=0.000560538 V=0.377694 u1=1.57585 u2=0.834434 u3=0 Iion=-1.39751
DEBUG cell=0 t=0.19843→0.198991 step=0.00504484 V=0.377694 u1=1.5765 u2=0.834044 u3=0 Iion=-1.39769
PIMPLE: iteration 1
DICPCG:  Solving for Vm, Initial residual = 0.000117851, Final residual = 3.88387e-16, No Iterations 5
PIMPLE: iteration 2
DICPCG:  Solving for Vm, Initial residual = 4.07718e-16, Final residual = 4.07718e-16, No Iterations 0
ExecutionTime = 2.95 s  ClockTime = 3 s

Time = 0.199552

DEBUG cell=0 t=0.198991→0.199552 step=0.000560538 V=0.377783 u1=1.5765 u2=0.834044 u3=0 Iion=-1.39769
DEBUG cell=0 t=0.198991→0.199552 step=0.00504484 V=0.377783 u1=1.57715 u2=0.833654 u3=0 Iion=-1.39787
PIMPLE: iteration 1
DICPCG:  Solving for Vm, Initial residual = 0.000117797, Final residual = 3.88207e-16, No Iterations 5
PIMPLE: iteration 2
DICPCG:  Solving for Vm, Initial residual = 4.07315e-16, Final residual = 4.07315e-16, No Iterations 0
ExecutionTime = 2.95 s  ClockTime = 3 s

Time = 0.200112

DEBUG cell=0 t=0.199552→0.200112 step=0.000560538 V=0.377872 u1=1.57715 u2=0.833654 u3=0 Iion=-1.39787
DEBUG cell=0 t=0.199552→0.200112 step=0.00504484 V=0.377872 u1=1.5778 u2=0.833265 u3=0 Iion=-1.39806
PIMPLE: iteration 1
DICPCG:  Solving for Vm, Initial residual = 0.000117742, Final residual = 3.88027e-16, No Iterations 5
PIMPLE: iteration 2
DICPCG:  Solving for Vm, Initial residual = 4.06196e-16, Final residual = 4.06196e-16, No Iterations 0
Running postProcess via tmanufacturedFDA.

Simulation summary:
-------------------
Number of cells (N)   = 40
Solver type           = Implicit
Grid spacing (dx)     = 0.025
Time step (dt)        = 0.000560538
Number of steps       = 357
Final simulation time = 0.200112
-------------------

Manufactured-solution error summary (t = 0.200112):
-------------------------------------------------
Field     L1-error       L2-error       Linf-error
Vm     0.000188607   0.000258036   0.000731816
u1     1.50153e-05   2.10068e-05   7.72067e-05
u2     6.54349e-06   9.00265e-06   2.73027e-05
-------------------------------------------------

ExecutionTime = 2.96 s  ClockTime = 3 s


End

Finalising parallel run
