/*---------------------------------------------------------------------------*\
| =========                 |                                                 |
| \\      /  F ield         | OpenFOAM: The Open Source CFD Toolbox           |
|  \\    /   O peration     | Version:  2412                                  |
|   \\  /    A nd           | Website:  www.openfoam.com                      |
|    \\/     M anipulation  |                                                 |
\*---------------------------------------------------------------------------*/
Build  : _8dbc61e11c-20241220 OPENFOAM=2412 version=v2412
Arch   : "LSB;label=32;scalar=64"
Exec   : cardiacFoam -parallel
Date   : Apr 13 2026
Time   : 13:03:09
Host   : macbook
PID    : 92596
I/O    : uncollated
Case   : /Users/simaocastro/cardiacFoamEPsacred/cardiacFoamsacred/tutorials/Niederer/NiedererEtAl2012verification
nProcs : 6
Hosts  :
(
    (macbook 6)
)
Pstream initialized with:
    floatTransfer      : false
    maxCommsSize       : 0
    nProcsSimpleSum    : 0
    nonBlockingExchange: 0 (tuning: 0)
    exchange algorithm : 0
    commsType          : nonBlocking
    polling iterations : 0
trapFpe: Floating point exception trapping enabled (FOAM_SIGFPE).
fileModificationChecking : Monitoring run-time modified files using timeStampMaster (fileModificationSkew 5, maxFileModificationPolls 20)
allowSystemOperations : Allowing user-supplied system call operations

// * * * * * * * * * * * * * * * * * * * * * * * * * * * * * * * * * * * * * //
Create time

Selecting physicsModel electroModel

Selecting myocardiumSolver monodomainSolver

Selecting myocardiumSolver monodomainSolver

conductivity not found on disk, using value from "/Users/simaocastro/cardiacFoamEPsacred/cardiacFoamsacred/tutorials/Niederer/NiedererEtAl2012verification/processor0/../constant/electroProperties/monodomainSolverCoeffs"

MyocardiumDomain initial Vm[min,max]=[-0.084, -0.084] V

Selecting electrophysicsAdvanceScheme staggeredElectrophysicsAdvanceScheme
--> FOAM Warning : 
    From virtual void Foam::probes::findElements(const fvMesh &)
    in file probes/probes.C at line 260
    Location (0.0066 0.00099 0.00469) seems to be on multiple domains: cell 15971 on my domain 0 and face 26685 on some other domain.
This might happen if the probe location is on a processor patch. Change the location slightly to prevent this.
--> FOAM Warning : 
    From virtual void Foam::probes::findElements(const fvMesh &)
    in file probes/probes.C at line 246
    Location (0.0098 0.00147 0.00357) seems to be on multiple domains: cell 4057 on my domain 0 and cell 4828 on some other domain.
This might happen if the probe location is on a processor patch. Change the location slightly to prevent this.
Setting deltaT = 4.19734e-05, maxCo = 0.1
Time = 4.19734e-05

--> FOAM Warning : 
    From static const Foam::wordList &Foam::ionicModelIO::exportedFieldNamesRef(const wordList &, const char *const *, label, const char *const *, label, ExportedNamesCache &)
    in file ionicModelIO.C at line 417
    Ignoring unknown ionic model variable 'Iion'.
DEBUG cell=0 t=0→0.0419734 step=5e-05 Vm=-6.08874e-17
Selecting ODE solver RKF45
DEBUG cell=0 t=0→0.0419734 step=0.32805 Vm=-6.08874e-17
diagonal:  Solving for Vm, Initial residual = 0, Final residual = 0, No Iterations 0
ExecutionTime = 0.05 s  ClockTime = 1 s

Time = 8.39469e-05

DEBUG cell=0 t=0.0419734→0.0839469 step=0.0419734 Vm=-6.08874e-17
DEBUG cell=0 t=0.0419734→0.0839469 step=0.377761 Vm=-6.08874e-17
diagonal:  Solving for Vm, Initial residual = 0, Final residual = 0, No Iterations 0
ExecutionTime = 0.05 s  ClockTime = 1 s

Time = 0.00012592

DEBUG cell=0 t=0.0839469→0.12592 step=0.0419734 Vm=1.01047e-16
DEBUG cell=0 t=0.0839469→0.12592 step=0.377761 Vm=1.01047e-16
diagonal:  Solving for Vm, Initial residual = 0, Final residual = 0, No Iterations 0
ExecutionTime = 0.07 s  ClockTime = 1 s

Time = 0.000167894

DEBUG cell=0 t=0.12592→0.167894 step=0.0419734 Vm=1.01047e-16
DEBUG cell=0 t=0.12592→0.167894 step=0.377761 Vm=1.01047e-16
diagonal:  Solving for Vm, Initial residual = 0, Final residual = 0, No Iterations 0
ExecutionTime = 0.07 s  ClockTime = 1 s

Time = 0.000209867

DEBUG cell=0 t=0.167894→0.209867 step=0.0419734 Vm=1.01047e-16
DEBUG cell=0 t=0.167894→0.209867 step=0.377761 Vm=1.01047e-16
diagonal:  Solving for Vm, Initial residual = 0, Final residual = 0, No Iterations 0
ExecutionTime = 0.08 s  ClockTime = 1 s

Time = 0.000251841

DEBUG cell=0 t=0.209867→0.251841 step=0.0419734 Vm=1.01047e-16
DEBUG cell=0 t=0.209867→0.251841 step=0.377761 Vm=1.01047e-16
diagonal:  Solving for Vm, Initial residual = 0, Final residual = 0, No Iterations 0
ExecutionTime = 0.08 s  ClockTime = 1 s

Time = 0.000293814

DEBUG cell=0 t=0.251841→0.293814 step=0.0419734 Vm=1.01047e-16
DEBUG cell=0 t=0.251841→0.293814 step=0.377761 Vm=1.01047e-16
diagonal:  Solving for Vm, Initial residual = 0, Final residual = 0, No Iterations 0
ExecutionTime = 0.08 s  ClockTime = 1 s

Time = 0.000335787

DEBUG cell=0 t=0.293814→0.335787 step=0.0419734 Vm=1.01047e-16
DEBUG cell=0 t=0.293814→0.335787 step=0.377761 Vm=1.01047e-16
diagonal:  Solving for Vm, Initial residual = 0, Final residual = 0, No Iterations 0
ExecutionTime = 0.09 s  ClockTime = 1 s

Time = 0.000377761

DEBUG cell=0 t=0.335787→0.377761 step=0.0419734 Vm=1.01047e-16
DEBUG cell=0 t=0.335787→0.377761 step=0.377761 Vm=1.01047e-16
diagonal:  Solving for Vm, Initial residual = 0, Final residual = 0, No Iterations 0
ExecutionTime = 0.09 s  ClockTime = 1 s

Time = 0.000419734

DEBUG cell=0 t=0.377761→0.419734 step=0.0419734 Vm=1.01047e-16
DEBUG cell=0 t=0.377761→0.419734 step=0.377761 Vm=1.01047e-16
diagonal:  Solving for Vm, Initial residual = 0, Final residual = 0, No Iterations 0
ExecutionTime = 0.09 s  ClockTime = 1 s

Time = 0.000461708

DEBUG cell=0 t=0.419734→0.461708 step=0.0419734 Vm=1.01047e-16
DEBUG cell=0 t=0.419734→0.461708 step=0.377761 Vm=1.01047e-16
diagonal:  Solving for Vm, Initial residual = 0, Final residual = 0, No Iterations 0
ExecutionTime = 0.1 s  ClockTime = 1 s

Time = 0.000503681

DEBUG cell=0 t=0.461708→0.503681 step=0.0419734 Vm=1.01047e-16
DEBUG cell=0 t=0.461708→0.503681 step=0.377761 Vm=1.01047e-16
diagonal:  Solving for Vm, Initial residual = 0, Final residual = 0, No Iterations 0
ExecutionTime = 0.1 s  ClockTime = 1 s

Time = 0.000545655

DEBUG cell=0 t=0.503681→0.545655 step=0.0419734 Vm=1.01047e-16
DEBUG cell=0 t=0.503681→0.545655 step=0.377761 Vm=1.01047e-16
diagonal:  Solving for Vm, Initial residual = 0, Final residual = 0, No Iterations 0
ExecutionTime = 0.1 s  ClockTime = 1 s

Time = 0.000587628

DEBUG cell=0 t=0.545655→0.587628 step=0.0419734 Vm=1.01047e-16
DEBUG cell=0 t=0.545655→0.587628 step=0.377761 Vm=1.01047e-16
diagonal:  Solving for Vm, Initial residual = 0, Final residual = 0, No Iterations 0
ExecutionTime = 0.11 s  ClockTime = 1 s

Time = 0.000629602

DEBUG cell=0 t=0.587628→0.629602 step=0.0419734 Vm=1.01047e-16
DEBUG cell=0 t=0.587628→0.629602 step=0.377761 Vm=1.01047e-16
diagonal:  Solving for Vm, Initial residual = 0, Final residual = 0, No Iterations 0
ExecutionTime = 0.11 s  ClockTime = 1 s

Time = 0.000671575

DEBUG cell=0 t=0.629602→0.671575 step=0.0419734 Vm=1.01047e-16
DEBUG cell=0 t=0.629602→0.671575 step=0.377761 Vm=1.01047e-16
diagonal:  Solving for Vm, Initial residual = 0, Final residual = 0, No Iterations 0
ExecutionTime = 0.12 s  ClockTime = 1 s

Time = 0.000713548

DEBUG cell=0 t=0.671575→0.713548 step=0.0419734 Vm=1.01047e-16
DEBUG cell=0 t=0.671575→0.713548 step=0.377761 Vm=1.01047e-16
diagonal:  Solving for Vm, Initial residual = 0, Final residual = 0, No Iterations 0
ExecutionTime = 0.12 s  ClockTime = 1 s

Time = 0.000755522

DEBUG cell=0 t=0.713548→0.755522 step=0.0419734 Vm=1.01047e-16
DEBUG cell=0 t=0.713548→0.755522 step=0.377761 Vm=1.01047e-16
diagonal:  Solving for Vm, Initial residual = 0, Final residual = 0, No Iterations 0
ExecutionTime = 0.13 s  ClockTime = 1 s

Time = 0.000797495

DEBUG cell=0 t=0.755522→0.797495 step=0.0419734 Vm=1.01047e-16
DEBUG cell=0 t=0.755522→0.797495 step=0.377761 Vm=1.01047e-16
diagonal:  Solving for Vm, Initial residual = 0, Final residual = 0, No Iterations 0
ExecutionTime = 0.13 s  ClockTime = 1 s

Time = 0.000839469

DEBUG cell=0 t=0.797495→0.839469 step=0.0419734 Vm=1.01047e-16
DEBUG cell=0 t=0.797495→0.839469 step=0.377761 Vm=1.01047e-16
diagonal:  Solving for Vm, Initial residual = 0, Final residual = 0, No Iterations 0
ExecutionTime = 0.14 s  ClockTime = 1 s

Time = 0.000881442

DEBUG cell=0 t=0.839469→0.881442 step=0.0419734 Vm=1.01047e-16
DEBUG cell=0 t=0.839469→0.881442 step=0.377761 Vm=1.01047e-16
diagonal:  Solving for Vm, Initial residual = 0, Final residual = 0, No Iterations 0
ExecutionTime = 0.14 s  ClockTime = 1 s

Time = 0.000923416

DEBUG cell=0 t=0.881442→0.923416 step=0.0419734 Vm=1.01047e-16
DEBUG cell=0 t=0.881442→0.923416 step=0.377761 Vm=1.01047e-16
diagonal:  Solving for Vm, Initial residual = 0, Final residual = 0, No Iterations 0
ExecutionTime = 0.15 s  ClockTime = 1 s

Time = 0.000965389

DEBUG cell=0 t=0.923416→0.965389 step=0.0419734 Vm=1.01047e-16
DEBUG cell=0 t=0.923416→0.965389 step=0.377761 Vm=1.01047e-16
diagonal:  Solving for Vm, Initial residual = 0, Final residual = 0, No Iterations 0
ExecutionTime = 0.15 s  ClockTime = 1 s

Time = 0.00100736

DEBUG cell=0 t=0.965389→1.00736 step=0.0419734 Vm=1.01047e-16
DEBUG cell=0 t=0.965389→1.00736 step=0.377761 Vm=1.01047e-16
diagonal:  Solving for Vm, Initial residual = 0, Final residual = 0, No Iterations 0
ExecutionTime = 0.16 s  ClockTime = 1 s

Time = 0.00104934

DEBUG cell=0 t=1.00736→1.04934 step=0.0419734 Vm=1.01047e-16
DEBUG cell=0 t=1.00736→1.04934 step=0.377761 Vm=1.01047e-16
diagonal:  Solving for Vm, Initial residual = 0, Final residual = 0, No Iterations 0
ExecutionTime = 0.16 s  ClockTime = 1 s

Time = 0.00109131

DEBUG cell=0 t=1.04934→1.09131 step=0.0419734 Vm=1.01047e-16
DEBUG cell=0 t=1.04934→1.09131 step=0.377761 Vm=1.01047e-16
diagonal:  Solving for Vm, Initial residual = 0, Final residual = 0, No Iterations 0
ExecutionTime = 0.16 s  ClockTime = 1 s

Time = 0.00113328

DEBUG cell=0 t=1.09131→1.13328 step=0.0419734 Vm=1.01047e-16
DEBUG cell=0 t=1.09131→1.13328 step=0.377761 Vm=1.01047e-16
diagonal:  Solving for Vm, Initial residual = 0, Final residual = 0, No Iterations 0
ExecutionTime = 0.17 s  ClockTime = 1 s

Time = 0.00117526

DEBUG cell=0 t=1.13328→1.17526 step=0.0419734 Vm=1.01047e-16
DEBUG cell=0 t=1.13328→1.17526 step=0.377761 Vm=1.01047e-16
diagonal:  Solving for Vm, Initial residual = 0, Final residual = 0, No Iterations 0
ExecutionTime = 0.17 s  ClockTime = 1 s

Time = 0.00121723

DEBUG cell=0 t=1.17526→1.21723 step=0.0419734 Vm=1.01047e-16
DEBUG cell=0 t=1.17526→1.21723 step=0.377761 Vm=1.01047e-16
diagonal:  Solving for Vm, Initial residual = 0, Final residual = 0, No Iterations 0
ExecutionTime = 0.17 s  ClockTime = 1 s

Time = 0.0012592

DEBUG cell=0 t=1.21723→1.2592 step=0.0419734 Vm=1.01047e-16
DEBUG cell=0 t=1.21723→1.2592 step=0.377761 Vm=1.01047e-16
diagonal:  Solving for Vm, Initial residual = 0, Final residual = 0, No Iterations 0
ExecutionTime = 0.18 s  ClockTime = 1 s

Time = 0.00130118

DEBUG cell=0 t=1.2592→1.30118 step=0.0419734 Vm=1.01047e-16
DEBUG cell=0 t=1.2592→1.30118 step=0.377761 Vm=1.01047e-16
diagonal:  Solving for Vm, Initial residual = 0, Final residual = 0, No Iterations 0
ExecutionTime = 0.18 s  ClockTime = 1 s

Time = 0.00134315

DEBUG cell=0 t=1.30118→1.34315 step=0.0419734 Vm=1.01047e-16
DEBUG cell=0 t=1.30118→1.34315 step=0.377761 Vm=1.01047e-16
diagonal:  Solving for Vm, Initial residual = 0, Final residual = 0, No Iterations 0
ExecutionTime = 0.19 s  ClockTime = 1 s

Time = 0.00138512

DEBUG cell=0 t=1.34315→1.38512 step=0.0419734 Vm=1.01047e-16
DEBUG cell=0 t=1.34315→1.38512 step=0.377761 Vm=1.01047e-16
diagonal:  Solving for Vm, Initial residual = 0, Final residual = 0, No Iterations 0
ExecutionTime = 0.2 s  ClockTime = 1 s

Time = 0.0014271

DEBUG cell=0 t=1.38512→1.4271 step=0.0419734 Vm=1.01047e-16
DEBUG cell=0 t=1.38512→1.4271 step=0.377761 Vm=1.01047e-16
diagonal:  Solving for Vm, Initial residual = 0, Final residual = 0, No Iterations 0
ExecutionTime = 0.2 s  ClockTime = 1 s

Time = 0.00146907

DEBUG cell=0 t=1.4271→1.46907 step=0.0419734 Vm=1.01047e-16
DEBUG cell=0 t=1.4271→1.46907 step=0.377761 Vm=1.01047e-16
diagonal:  Solving for Vm, Initial residual = 0, Final residual = 0, No Iterations 0
ExecutionTime = 0.21 s  ClockTime = 1 s

Time = 0.00151104

DEBUG cell=0 t=1.46907→1.51104 step=0.0419734 Vm=1.01047e-16
DEBUG cell=0 t=1.46907→1.51104 step=0.377761 Vm=1.01047e-16
diagonal:  Solving for Vm, Initial residual = 0, Final residual = 0, No Iterations 0
ExecutionTime = 0.21 s  ClockTime = 1 s

Time = 0.00155302

DEBUG cell=0 t=1.51104→1.55302 step=0.0419734 Vm=1.01047e-16
DEBUG cell=0 t=1.51104→1.55302 step=0.377761 Vm=1.01047e-16
diagonal:  Solving for Vm, Initial residual = 0, Final residual = 0, No Iterations 0
ExecutionTime = 0.21 s  ClockTime = 1 s

Time = 0.00159499

DEBUG cell=0 t=1.55302→1.59499 step=0.0419734 Vm=1.01047e-16
DEBUG cell=0 t=1.55302→1.59499 step=0.377761 Vm=1.01047e-16
diagonal:  Solving for Vm, Initial residual = 0, Final residual = 0, No Iterations 0
ExecutionTime = 0.22 s  ClockTime = 1 s

Time = 0.00163696

DEBUG cell=0 t=1.59499→1.63696 step=0.0419734 Vm=1.01047e-16
DEBUG cell=0 t=1.59499→1.63696 step=0.377761 Vm=1.01047e-16
diagonal:  Solving for Vm, Initial residual = 0, Final residual = 0, No Iterations 0
ExecutionTime = 0.22 s  ClockTime = 1 s

Time = 0.00167894

DEBUG cell=0 t=1.63696→1.67894 step=0.0419734 Vm=1.01047e-16
DEBUG cell=0 t=1.63696→1.67894 step=0.377761 Vm=1.01047e-16
diagonal:  Solving for Vm, Initial residual = 0, Final residual = 0, No Iterations 0
ExecutionTime = 0.23 s  ClockTime = 1 s

Time = 0.00172091

DEBUG cell=0 t=1.67894→1.72091 step=0.0419734 Vm=1.01047e-16
DEBUG cell=0 t=1.67894→1.72091 step=0.377761 Vm=1.01047e-16
diagonal:  Solving for Vm, Initial residual = 0, Final residual = 0, No Iterations 0
ExecutionTime = 0.23 s  ClockTime = 1 s

Time = 0.00176288

DEBUG cell=0 t=1.72091→1.76288 step=0.0419734 Vm=1.01047e-16
DEBUG cell=0 t=1.72091→1.76288 step=0.377761 Vm=1.01047e-16
diagonal:  Solving for Vm, Initial residual = 0, Final residual = 0, No Iterations 0
ExecutionTime = 0.23 s  ClockTime = 1 s

Time = 0.00180486

DEBUG cell=0 t=1.76288→1.80486 step=0.0419734 Vm=1.01047e-16
DEBUG cell=0 t=1.76288→1.80486 step=0.377761 Vm=1.01047e-16
diagonal:  Solving for Vm, Initial residual = 0, Final residual = 0, No Iterations 0
ExecutionTime = 0.24 s  ClockTime = 1 s

Time = 0.00184683

DEBUG cell=0 t=1.80486→1.84683 step=0.0419734 Vm=1.01047e-16
DEBUG cell=0 t=1.80486→1.84683 step=0.377761 Vm=1.01047e-16
diagonal:  Solving for Vm, Initial residual = 0, Final residual = 0, No Iterations 0
ExecutionTime = 0.24 s  ClockTime = 1 s

Time = 0.0018888

DEBUG cell=0 t=1.84683→1.8888 step=0.0419734 Vm=1.01047e-16
DEBUG cell=0 t=1.84683→1.8888 step=0.377761 Vm=1.01047e-16
diagonal:  Solving for Vm, Initial residual = 0, Final residual = 0, No Iterations 0
ExecutionTime = 0.24 s  ClockTime = 1 s

Time = 0.00193078

DEBUG cell=0 t=1.8888→1.93078 step=0.0419734 Vm=1.01047e-16
DEBUG cell=0 t=1.8888→1.93078 step=0.377761 Vm=1.01047e-16
diagonal:  Solving for Vm, Initial residual = 0, Final residual = 0, No Iterations 0
ExecutionTime = 0.25 s  ClockTime = 1 s

Time = 0.00197275

DEBUG cell=0 t=1.93078→1.97275 step=0.0419734 Vm=1.01047e-16
DEBUG cell=0 t=1.93078→1.97275 step=0.377761 Vm=1.01047e-16
diagonal:  Solving for Vm, Initial residual = 0, Final residual = 0, No Iterations 0
ExecutionTime = 0.25 s  ClockTime = 1 s

Time = 0.00201472

DEBUG cell=0 t=1.97275→2.01472 step=0.0419734 Vm=1.01047e-16
DEBUG cell=0 t=1.97275→2.01472 step=0.377761 Vm=1.01047e-16
diagonal:  Solving for Vm, Initial residual = 0, Final residual = 0, No Iterations 0
ExecutionTime = 0.25 s  ClockTime = 1 s

Time = 0.0020567

DEBUG cell=0 t=2.01472→2.0567 step=0.0419734 Vm=1.01047e-16
DEBUG cell=0 t=2.01472→2.0567 step=0.377761 Vm=1.01047e-16
diagonal:  Solving for Vm, Initial residual = 0, Final residual = 0, No Iterations 0
ExecutionTime = 0.26 s  ClockTime = 1 s

Time = 0.00209867

DEBUG cell=0 t=2.0567→2.09867 step=0.0419734 Vm=1.01047e-16
DEBUG cell=0 t=2.0567→2.09867 step=0.377761 Vm=1.01047e-16
diagonal:  Solving for Vm, Initial residual = 0, Final residual = 0, No Iterations 0
ExecutionTime = 0.26 s  ClockTime = 1 s

Time = 0.00214065

DEBUG cell=0 t=2.09867→2.14065 step=0.0419734 Vm=1.01047e-16
DEBUG cell=0 t=2.09867→2.14065 step=0.377761 Vm=1.01047e-16
diagonal:  Solving for Vm, Initial residual = 0, Final residual = 0, No Iterations 0
ExecutionTime = 0.27 s  ClockTime = 1 s

Time = 0.00218262

DEBUG cell=0 t=2.14065→2.18262 step=0.0419734 Vm=1.01047e-16
DEBUG cell=0 t=2.14065→2.18262 step=0.377761 Vm=1.01047e-16
diagonal:  Solving for Vm, Initial residual = 0, Final residual = 0, No Iterations 0
ExecutionTime = 0.27 s  ClockTime = 1 s

Time = 0.00222459

DEBUG cell=0 t=2.18262→2.22459 step=0.0419734 Vm=1.01047e-16
DEBUG cell=0 t=2.18262→2.22459 step=0.377761 Vm=1.01047e-16
diagonal:  Solving for Vm, Initial residual = 0, Final residual = 0, No Iterations 0
ExecutionTime = 0.28 s  ClockTime = 1 s

Time = 0.00226657

DEBUG cell=0 t=2.22459→2.26657 step=0.0419734 Vm=1.01047e-16
DEBUG cell=0 t=2.22459→2.26657 step=0.377761 Vm=1.01047e-16
diagonal:  Solving for Vm, Initial residual = 0, Final residual = 0, No Iterations 0
ExecutionTime = 0.28 s  ClockTime = 1 s

Time = 0.00230854

DEBUG cell=0 t=2.26657→2.30854 step=0.0419734 Vm=1.01047e-16
DEBUG cell=0 t=2.26657→2.30854 step=0.377761 Vm=1.01047e-16
diagonal:  Solving for Vm, Initial residual = 0, Final residual = 0, No Iterations 0
ExecutionTime = 0.29 s  ClockTime = 1 s

Time = 0.00235051

DEBUG cell=0 t=2.30854→2.35051 step=0.0419734 Vm=1.01047e-16
DEBUG cell=0 t=2.30854→2.35051 step=0.377761 Vm=1.01047e-16
diagonal:  Solving for Vm, Initial residual = 0, Final residual = 0, No Iterations 0
ExecutionTime = 0.29 s  ClockTime = 1 s

Time = 0.00239249

DEBUG cell=0 t=2.35051→2.39249 step=0.0419734 Vm=1.01047e-16
DEBUG cell=0 t=2.35051→2.39249 step=0.377761 Vm=1.01047e-16
diagonal:  Solving for Vm, Initial residual = 0, Final residual = 0, No Iterations 0
ExecutionTime = 0.3 s  ClockTime = 1 s

Time = 0.00243446

DEBUG cell=0 t=2.39249→2.43446 step=0.0419734 Vm=1.01047e-16
DEBUG cell=0 t=2.39249→2.43446 step=0.377761 Vm=1.01047e-16
diagonal:  Solving for Vm, Initial residual = 0, Final residual = 0, No Iterations 0
ExecutionTime = 0.3 s  ClockTime = 1 s

Time = 0.00247643

DEBUG cell=0 t=2.43446→2.47643 step=0.0419734 Vm=1.01047e-16
DEBUG cell=0 t=2.43446→2.47643 step=0.377761 Vm=1.01047e-16
diagonal:  Solving for Vm, Initial residual = 0, Final residual = 0, No Iterations 0
ExecutionTime = 0.31 s  ClockTime = 1 s

Time = 0.00251841

DEBUG cell=0 t=2.47643→2.51841 step=0.0419734 Vm=1.01047e-16
DEBUG cell=0 t=2.47643→2.51841 step=0.377761 Vm=1.01047e-16
diagonal:  Solving for Vm, Initial residual = 0, Final residual = 0, No Iterations 0
ExecutionTime = 0.32 s  ClockTime = 1 s

Time = 0.00256038

DEBUG cell=0 t=2.51841→2.56038 step=0.0419734 Vm=1.01047e-16
DEBUG cell=0 t=2.51841→2.56038 step=0.377761 Vm=1.01047e-16
diagonal:  Solving for Vm, Initial residual = 0, Final residual = 0, No Iterations 0
ExecutionTime = 0.32 s  ClockTime = 1 s

Time = 0.00260235

DEBUG cell=0 t=2.56038→2.60235 step=0.0419734 Vm=1.01047e-16
DEBUG cell=0 t=2.56038→2.60235 step=0.377761 Vm=1.01047e-16
diagonal:  Solving for Vm, Initial residual = 0, Final residual = 0, No Iterations 0
ExecutionTime = 0.33 s  ClockTime = 1 s

Time = 0.00264433

DEBUG cell=0 t=2.60235→2.64433 step=0.0419734 Vm=1.01047e-16
DEBUG cell=0 t=2.60235→2.64433 step=0.377761 Vm=1.01047e-16
diagonal:  Solving for Vm, Initial residual = 0, Final residual = 0, No Iterations 0
ExecutionTime = 0.33 s  ClockTime = 1 s

Time = 0.0026863

DEBUG cell=0 t=2.64433→2.6863 step=0.0419734 Vm=1.01047e-16
DEBUG cell=0 t=2.64433→2.6863 step=0.377761 Vm=1.01047e-16
diagonal:  Solving for Vm, Initial residual = 0, Final residual = 0, No Iterations 0
ExecutionTime = 0.34 s  ClockTime = 1 s

Time = 0.00272827

DEBUG cell=0 t=2.6863→2.72827 step=0.0419734 Vm=1.01047e-16
DEBUG cell=0 t=2.6863→2.72827 step=0.377761 Vm=1.01047e-16
diagonal:  Solving for Vm, Initial residual = 0, Final residual = 0, No Iterations 0
ExecutionTime = 0.34 s  ClockTime = 1 s

Time = 0.00277025

DEBUG cell=0 t=2.72827→2.77025 step=0.0419734 Vm=1.01047e-16
DEBUG cell=0 t=2.72827→2.77025 step=0.377761 Vm=1.01047e-16
diagonal:  Solving for Vm, Initial residual = 0, Final residual = 0, No Iterations 0
ExecutionTime = 0.35 s  ClockTime = 1 s

Time = 0.00281222

DEBUG cell=0 t=2.77025→2.81222 step=0.0419734 Vm=1.01047e-16
DEBUG cell=0 t=2.77025→2.81222 step=0.377761 Vm=1.01047e-16
diagonal:  Solving for Vm, Initial residual = 0, Final residual = 0, No Iterations 0
ExecutionTime = 0.35 s  ClockTime = 1 s

Time = 0.00285419

DEBUG cell=0 t=2.81222→2.85419 step=0.0419734 Vm=1.01047e-16
DEBUG cell=0 t=2.81222→2.85419 step=0.377761 Vm=1.01047e-16
diagonal:  Solving for Vm, Initial residual = 0, Final residual = 0, No Iterations 0
ExecutionTime = 0.36 s  ClockTime = 1 s

Time = 0.00289617

DEBUG cell=0 t=2.85419→2.89617 step=0.0419734 Vm=1.01047e-16
DEBUG cell=0 t=2.85419→2.89617 step=0.377761 Vm=1.01047e-16
diagonal:  Solving for Vm, Initial residual = 0, Final residual = 0, No Iterations 0
ExecutionTime = 0.36 s  ClockTime = 1 s

Time = 0.00293814

DEBUG cell=0 t=2.89617→2.93814 step=0.0419734 Vm=1.01047e-16
DEBUG cell=0 t=2.89617→2.93814 step=0.377761 Vm=1.01047e-16
diagonal:  Solving for Vm, Initial residual = 0, Final residual = 0, No Iterations 0
ExecutionTime = 0.37 s  ClockTime = 1 s

Time = 0.00298011

DEBUG cell=0 t=2.93814→2.98011 step=0.0419734 Vm=1.01047e-16
DEBUG cell=0 t=2.93814→2.98011 step=0.377761 Vm=1.01047e-16
diagonal:  Solving for Vm, Initial residual = 0, Final residual = 0, No Iterations 0
ExecutionTime = 0.37 s  ClockTime = 1 s

Time = 0.00302209

DEBUG cell=0 t=2.98011→3.02209 step=0.0419734 Vm=1.01047e-16
DEBUG cell=0 t=2.98011→3.02209 step=0.377761 Vm=1.01047e-16
diagonal:  Solving for Vm, Initial residual = 0, Final residual = 0, No Iterations 0
ExecutionTime = 0.37 s  ClockTime = 1 s

Time = 0.00306406

DEBUG cell=0 t=3.02209→3.06406 step=0.0419734 Vm=1.01047e-16
DEBUG cell=0 t=3.02209→3.06406 step=0.377761 Vm=1.01047e-16
diagonal:  Solving for Vm, Initial residual = 0, Final residual = 0, No Iterations 0
ExecutionTime = 0.38 s  ClockTime = 1 s

Time = 0.00310603

DEBUG cell=0 t=3.06406→3.10603 step=0.0419734 Vm=1.01047e-16
DEBUG cell=0 t=3.06406→3.10603 step=0.377761 Vm=1.01047e-16
diagonal:  Solving for Vm, Initial residual = 0, Final residual = 0, No Iterations 0
ExecutionTime = 0.38 s  ClockTime = 1 s

Time = 0.00314801

DEBUG cell=0 t=3.10603→3.14801 step=0.0419734 Vm=1.01047e-16
DEBUG cell=0 t=3.10603→3.14801 step=0.377761 Vm=1.01047e-16
diagonal:  Solving for Vm, Initial residual = 0, Final residual = 0, No Iterations 0
ExecutionTime = 0.39 s  ClockTime = 1 s

Time = 0.00318998

DEBUG cell=0 t=3.14801→3.18998 step=0.0419734 Vm=1.01047e-16
DEBUG cell=0 t=3.14801→3.18998 step=0.377761 Vm=1.01047e-16
diagonal:  Solving for Vm, Initial residual = 0, Final residual = 0, No Iterations 0
ExecutionTime = 0.39 s  ClockTime = 1 s

Time = 0.00323195

DEBUG cell=0 t=3.18998→3.23195 step=0.0419734 Vm=1.01047e-16
DEBUG cell=0 t=3.18998→3.23195 step=0.377761 Vm=1.01047e-16
diagonal:  Solving for Vm, Initial residual = 0, Final residual = 0, No Iterations 0
ExecutionTime = 0.4 s  ClockTime = 1 s

Time = 0.00327393

DEBUG cell=0 t=3.23195→3.27393 step=0.0419734 Vm=1.01047e-16
DEBUG cell=0 t=3.23195→3.27393 step=0.377761 Vm=1.01047e-16
diagonal:  Solving for Vm, Initial residual = 0, Final residual = 0, No Iterations 0
ExecutionTime = 0.4 s  ClockTime = 1 s

Time = 0.0033159

DEBUG cell=0 t=3.27393→3.3159 step=0.0419734 Vm=1.01047e-16
DEBUG cell=0 t=3.27393→3.3159 step=0.377761 Vm=1.01047e-16
diagonal:  Solving for Vm, Initial residual = 0, Final residual = 0, No Iterations 0
ExecutionTime = 0.41 s  ClockTime = 1 s

Time = 0.00335787

DEBUG cell=0 t=3.3159→3.35787 step=0.0419734 Vm=1.01047e-16
DEBUG cell=0 t=3.3159→3.35787 step=0.377761 Vm=1.01047e-16
diagonal:  Solving for Vm, Initial residual = 0, Final residual = 0, No Iterations 0
ExecutionTime = 0.41 s  ClockTime = 1 s

Time = 0.00339985

DEBUG cell=0 t=3.35787→3.39985 step=0.0419734 Vm=1.01047e-16
DEBUG cell=0 t=3.35787→3.39985 step=0.377761 Vm=1.01047e-16
diagonal:  Solving for Vm, Initial residual = 0, Final residual = 0, No Iterations 0
ExecutionTime = 0.42 s  ClockTime = 1 s

Time = 0.00344182

DEBUG cell=0 t=3.39985→3.44182 step=0.0419734 Vm=1.01047e-16
DEBUG cell=0 t=3.39985→3.44182 step=0.377761 Vm=1.01047e-16
diagonal:  Solving for Vm, Initial residual = 0, Final residual = 0, No Iterations 0
ExecutionTime = 0.42 s  ClockTime = 1 s

Time = 0.0034838

DEBUG cell=0 t=3.44182→3.4838 step=0.0419734 Vm=1.01047e-16
DEBUG cell=0 t=3.44182→3.4838 step=0.377761 Vm=1.01047e-16
diagonal:  Solving for Vm, Initial residual = 0, Final residual = 0, No Iterations 0
ExecutionTime = 0.42 s  ClockTime = 1 s

Time = 0.00352577

DEBUG cell=0 t=3.4838→3.52577 step=0.0419734 Vm=1.01047e-16
DEBUG cell=0 t=3.4838→3.52577 step=0.377761 Vm=1.01047e-16
diagonal:  Solving for Vm, Initial residual = 0, Final residual = 0, No Iterations 0
ExecutionTime = 0.43 s  ClockTime = 1 s

Time = 0.00356774

DEBUG cell=0 t=3.52577→3.56774 step=0.0419734 Vm=1.01047e-16
DEBUG cell=0 t=3.52577→3.56774 step=0.377761 Vm=1.01047e-16
diagonal:  Solving for Vm, Initial residual = 0, Final residual = 0, No Iterations 0
ExecutionTime = 0.43 s  ClockTime = 1 s

Time = 0.00360972

DEBUG cell=0 t=3.56774→3.60972 step=0.0419734 Vm=1.01047e-16
DEBUG cell=0 t=3.56774→3.60972 step=0.377761 Vm=1.01047e-16
diagonal:  Solving for Vm, Initial residual = 0, Final residual = 0, No Iterations 0
ExecutionTime = 0.44 s  ClockTime = 1 s

Time = 0.00365169

DEBUG cell=0 t=3.60972→3.65169 step=0.0419734 Vm=1.01047e-16
DEBUG cell=0 t=3.60972→3.65169 step=0.377761 Vm=1.01047e-16
diagonal:  Solving for Vm, Initial residual = 0, Final residual = 0, No Iterations 0
ExecutionTime = 0.44 s  ClockTime = 1 s

Time = 0.00369366

DEBUG cell=0 t=3.65169→3.69366 step=0.0419734 Vm=1.01047e-16
DEBUG cell=0 t=3.65169→3.69366 step=0.377761 Vm=1.01047e-16
diagonal:  Solving for Vm, Initial residual = 0, Final residual = 0, No Iterations 0
ExecutionTime = 0.45 s  ClockTime = 1 s

Time = 0.00373564

DEBUG cell=0 t=3.69366→3.73564 step=0.0419734 Vm=1.01047e-16
DEBUG cell=0 t=3.69366→3.73564 step=0.377761 Vm=1.01047e-16
diagonal:  Solving for Vm, Initial residual = 0, Final residual = 0, No Iterations 0
ExecutionTime = 0.46 s  ClockTime = 1 s

Time = 0.00377761

DEBUG cell=0 t=3.73564→3.77761 step=0.0419734 Vm=1.01047e-16
DEBUG cell=0 t=3.73564→3.77761 step=0.377761 Vm=1.01047e-16
diagonal:  Solving for Vm, Initial residual = 0, Final residual = 0, No Iterations 0
ExecutionTime = 0.47 s  ClockTime = 1 s

Time = 0.00381958

DEBUG cell=0 t=3.77761→3.81958 step=0.0419734 Vm=1.01047e-16
DEBUG cell=0 t=3.77761→3.81958 step=0.377761 Vm=1.01047e-16
diagonal:  Solving for Vm, Initial residual = 0, Final residual = 0, No Iterations 0
ExecutionTime = 0.47 s  ClockTime = 1 s

Time = 0.00386156

DEBUG cell=0 t=3.81958→3.86156 step=0.0419734 Vm=1.01047e-16
DEBUG cell=0 t=3.81958→3.86156 step=0.377761 Vm=1.01047e-16
diagonal:  Solving for Vm, Initial residual = 0, Final residual = 0, No Iterations 0
ExecutionTime = 0.48 s  ClockTime = 1 s

Time = 0.00390353

DEBUG cell=0 t=3.86156→3.90353 step=0.0419734 Vm=1.01047e-16
DEBUG cell=0 t=3.86156→3.90353 step=0.377761 Vm=1.01047e-16
diagonal:  Solving for Vm, Initial residual = 0, Final residual = 0, No Iterations 0
ExecutionTime = 0.48 s  ClockTime = 1 s

Time = 0.0039455

DEBUG cell=0 t=3.90353→3.9455 step=0.0419734 Vm=1.01047e-16
DEBUG cell=0 t=3.90353→3.9455 step=0.377761 Vm=1.01047e-16
diagonal:  Solving for Vm, Initial residual = 0, Final residual = 0, No Iterations 0
ExecutionTime = 0.48 s  ClockTime = 1 s

Time = 0.00398748

DEBUG cell=0 t=3.9455→3.98748 step=0.0419734 Vm=1.01047e-16
DEBUG cell=0 t=3.9455→3.98748 step=0.377761 Vm=1.01047e-16
diagonal:  Solving for Vm, Initial residual = 0, Final residual = 0, No Iterations 0
ExecutionTime = 0.49 s  ClockTime = 1 s

Time = 0.00402945

DEBUG cell=0 t=3.98748→4.02945 step=0.0419734 Vm=1.01047e-16
DEBUG cell=0 t=3.98748→4.02945 step=0.377761 Vm=1.01047e-16
diagonal:  Solving for Vm, Initial residual = 0, Final residual = 0, No Iterations 0
ExecutionTime = 0.49 s  ClockTime = 1 s

Time = 0.00407142

DEBUG cell=0 t=4.02945→4.07142 step=0.0419734 Vm=1.01047e-16
DEBUG cell=0 t=4.02945→4.07142 step=0.377761 Vm=1.01047e-16
diagonal:  Solving for Vm, Initial residual = 0, Final residual = 0, No Iterations 0
ExecutionTime = 0.5 s  ClockTime = 1 s

Time = 0.0041134

DEBUG cell=0 t=4.07142→4.1134 step=0.0419734 Vm=1.01047e-16
DEBUG cell=0 t=4.07142→4.1134 step=0.377761 Vm=1.01047e-16
diagonal:  Solving for Vm, Initial residual = 0, Final residual = 0, No Iterations 0
ExecutionTime = 0.5 s  ClockTime = 1 s

Time = 0.00415537

DEBUG cell=0 t=4.1134→4.15537 step=0.0419734 Vm=1.01047e-16
DEBUG cell=0 t=4.1134→4.15537 step=0.377761 Vm=1.01047e-16
diagonal:  Solving for Vm, Initial residual = 0, Final residual = 0, No Iterations 0
ExecutionTime = 0.51 s  ClockTime = 1 s

Time = 0.00419734

DEBUG cell=0 t=4.15537→4.19734 step=0.0419734 Vm=1.01047e-16
DEBUG cell=0 t=4.15537→4.19734 step=0.377761 Vm=1.01047e-16
diagonal:  Solving for Vm, Initial residual = 0, Final residual = 0, No Iterations 0
ExecutionTime = 0.51 s  ClockTime = 1 s

Time = 0.00423932

DEBUG cell=0 t=4.19734→4.23932 step=0.0419734 Vm=1.01047e-16
DEBUG cell=0 t=4.19734→4.23932 step=0.377761 Vm=1.01047e-16
diagonal:  Solving for Vm, Initial residual = 0, Final residual = 0, No Iterations 0
ExecutionTime = 0.51 s  ClockTime = 1 s

Time = 0.00428129

DEBUG cell=0 t=4.23932→4.28129 step=0.0419734 Vm=1.01047e-16
DEBUG cell=0 t=4.23932→4.28129 step=0.377761 Vm=1.01047e-16
diagonal:  Solving for Vm, Initial residual = 0, Final residual = 0, No Iterations 0
ExecutionTime = 0.52 s  ClockTime = 1 s

Time = 0.00432326

DEBUG cell=0 t=4.28129→4.32326 step=0.0419734 Vm=1.01047e-16
DEBUG cell=0 t=4.28129→4.32326 step=0.377761 Vm=1.01047e-16
diagonal:  Solving for Vm, Initial residual = 0, Final residual = 0, No Iterations 0
ExecutionTime = 0.52 s  ClockTime = 1 s

Time = 0.00436524

DEBUG cell=0 t=4.32326→4.36524 step=0.0419734 Vm=1.01047e-16
DEBUG cell=0 t=4.32326→4.36524 step=0.377761 Vm=1.01047e-16
diagonal:  Solving for Vm, Initial residual = 0, Final residual = 0, No Iterations 0
ExecutionTime = 0.53 s  ClockTime = 1 s

Time = 0.00440721

DEBUG cell=0 t=4.36524→4.40721 step=0.0419734 Vm=1.01047e-16
DEBUG cell=0 t=4.36524→4.40721 step=0.377761 Vm=1.01047e-16
diagonal:  Solving for Vm, Initial residual = 0, Final residual = 0, No Iterations 0
ExecutionTime = 0.53 s  ClockTime = 1 s

Time = 0.00444918

DEBUG cell=0 t=4.40721→4.44918 step=0.0419734 Vm=1.01047e-16
DEBUG cell=0 t=4.40721→4.44918 step=0.377761 Vm=1.01047e-16
diagonal:  Solving for Vm, Initial residual = 0, Final residual = 0, No Iterations 0
ExecutionTime = 0.53 s  ClockTime = 1 s

Time = 0.00449116

DEBUG cell=0 t=4.44918→4.49116 step=0.0419734 Vm=1.01047e-16
DEBUG cell=0 t=4.44918→4.49116 step=0.377761 Vm=1.01047e-16
diagonal:  Solving for Vm, Initial residual = 0, Final residual = 0, No Iterations 0
ExecutionTime = 0.54 s  ClockTime = 1 s

Time = 0.00453313

DEBUG cell=0 t=4.49116→4.53313 step=0.0419734 Vm=1.01047e-16
DEBUG cell=0 t=4.49116→4.53313 step=0.377761 Vm=1.01047e-16
diagonal:  Solving for Vm, Initial residual = 0, Final residual = 0, No Iterations 0
ExecutionTime = 0.54 s  ClockTime = 1 s

Time = 0.0045751

DEBUG cell=0 t=4.53313→4.5751 step=0.0419734 Vm=1.01047e-16
DEBUG cell=0 t=4.53313→4.5751 step=0.377761 Vm=1.01047e-16
diagonal:  Solving for Vm, Initial residual = 0, Final residual = 0, No Iterations 0
ExecutionTime = 0.55 s  ClockTime = 1 s

Time = 0.00461708

DEBUG cell=0 t=4.5751→4.61708 step=0.0419734 Vm=1.01047e-16
DEBUG cell=0 t=4.5751→4.61708 step=0.377761 Vm=1.01047e-16
diagonal:  Solving for Vm, Initial residual = 0, Final residual = 0, No Iterations 0
ExecutionTime = 0.55 s  ClockTime = 1 s

Time = 0.00465905

DEBUG cell=0 t=4.61708→4.65905 step=0.0419734 Vm=1.01047e-16
DEBUG cell=0 t=4.61708→4.65905 step=0.377761 Vm=1.01047e-16
diagonal:  Solving for Vm, Initial residual = 0, Final residual = 0, No Iterations 0
ExecutionTime = 0.55 s  ClockTime = 1 s

Time = 0.00470102

DEBUG cell=0 t=4.65905→4.70102 step=0.0419734 Vm=1.01047e-16
DEBUG cell=0 t=4.65905→4.70102 step=0.377761 Vm=1.01047e-16
diagonal:  Solving for Vm, Initial residual = 0, Final residual = 0, No Iterations 0
ExecutionTime = 0.56 s  ClockTime = 1 s

Time = 0.004743

DEBUG cell=0 t=4.70102→4.743 step=0.0419734 Vm=1.01047e-16
DEBUG cell=0 t=4.70102→4.743 step=0.377761 Vm=1.01047e-16
diagonal:  Solving for Vm, Initial residual = 0, Final residual = 0, No Iterations 0
ExecutionTime = 0.56 s  ClockTime = 1 s

Time = 0.00478497

DEBUG cell=0 t=4.743→4.78497 step=0.0419734 Vm=1.01047e-16
DEBUG cell=0 t=4.743→4.78497 step=0.377761 Vm=1.01047e-16
diagonal:  Solving for Vm, Initial residual = 0, Final residual = 0, No Iterations 0
ExecutionTime = 0.57 s  ClockTime = 1 s

Time = 0.00482694

DEBUG cell=0 t=4.78497→4.82694 step=0.0419734 Vm=1.01047e-16
DEBUG cell=0 t=4.78497→4.82694 step=0.377761 Vm=1.01047e-16
diagonal:  Solving for Vm, Initial residual = 0, Final residual = 0, No Iterations 0
ExecutionTime = 0.57 s  ClockTime = 1 s

Time = 0.00486892

DEBUG cell=0 t=4.82694→4.86892 step=0.0419734 Vm=1.01047e-16
DEBUG cell=0 t=4.82694→4.86892 step=0.377761 Vm=1.01047e-16
diagonal:  Solving for Vm, Initial residual = 0, Final residual = 0, No Iterations 0
ExecutionTime = 0.57 s  ClockTime = 1 s

Time = 0.00491089

DEBUG cell=0 t=4.86892→4.91089 step=0.0419734 Vm=1.01047e-16
DEBUG cell=0 t=4.86892→4.91089 step=0.377761 Vm=1.01047e-16
diagonal:  Solving for Vm, Initial residual = 0, Final residual = 0, No Iterations 0
ExecutionTime = 0.58 s  ClockTime = 1 s

Time = 0.00495287

DEBUG cell=0 t=4.91089→4.95287 step=0.0419734 Vm=1.01047e-16
DEBUG cell=0 t=4.91089→4.95287 step=0.377761 Vm=1.01047e-16
diagonal:  Solving for Vm, Initial residual = 0, Final residual = 0, No Iterations 0
ExecutionTime = 0.58 s  ClockTime = 1 s

Time = 0.00499484

DEBUG cell=0 t=4.95287→4.99484 step=0.0419734 Vm=1.01047e-16
DEBUG cell=0 t=4.95287→4.99484 step=0.377761 Vm=1.01047e-16
diagonal:  Solving for Vm, Initial residual = 0, Final residual = 0, No Iterations 0
ExecutionTime = 0.61 s  ClockTime = 1 s

Time = 0.00503681

DEBUG cell=0 t=4.99484→5.03681 step=0.0419734 Vm=1.01047e-16
DEBUG cell=0 t=4.99484→5.03681 step=0.377761 Vm=1.01047e-16
diagonal:  Solving for Vm, Initial residual = 0, Final residual = 0, No Iterations 0
ExecutionTime = 0.61 s  ClockTime = 1 s

Time = 0.00507879

DEBUG cell=0 t=5.03681→5.07879 step=0.0419734 Vm=1.01047e-16
DEBUG cell=0 t=5.03681→5.07879 step=0.377761 Vm=1.01047e-16
diagonal:  Solving for Vm, Initial residual = 0, Final residual = 0, No Iterations 0
ExecutionTime = 0.61 s  ClockTime = 1 s

Time = 0.00512076

DEBUG cell=0 t=5.07879→5.12076 step=0.0419734 Vm=1.01047e-16
DEBUG cell=0 t=5.07879→5.12076 step=0.377761 Vm=1.01047e-16
diagonal:  Solving for Vm, Initial residual = 0, Final residual = 0, No Iterations 0
ExecutionTime = 0.62 s  ClockTime = 1 s

Time = 0.00516273

DEBUG cell=0 t=5.12076→5.16273 step=0.0419734 Vm=1.01047e-16
DEBUG cell=0 t=5.12076→5.16273 step=0.377761 Vm=1.01047e-16
diagonal:  Solving for Vm, Initial residual = 0, Final residual = 0, No Iterations 0
ExecutionTime = 0.62 s  ClockTime = 1 s

Time = 0.00520471

DEBUG cell=0 t=5.16273→5.20471 step=0.0419734 Vm=1.01047e-16
DEBUG cell=0 t=5.16273→5.20471 step=0.377761 Vm=1.01047e-16
diagonal:  Solving for Vm, Initial residual = 0, Final residual = 0, No Iterations 0
ExecutionTime = 0.63 s  ClockTime = 1 s

Time = 0.00524668

DEBUG cell=0 t=5.20471→5.24668 step=0.0419734 Vm=1.01047e-16
DEBUG cell=0 t=5.20471→5.24668 step=0.377761 Vm=1.01047e-16
diagonal:  Solving for Vm, Initial residual = 0, Final residual = 0, No Iterations 0
ExecutionTime = 0.63 s  ClockTime = 1 s

Time = 0.00528865

DEBUG cell=0 t=5.24668→5.28865 step=0.0419734 Vm=1.01047e-16
DEBUG cell=0 t=5.24668→5.28865 step=0.377761 Vm=1.01047e-16
diagonal:  Solving for Vm, Initial residual = 0, Final residual = 0, No Iterations 0
ExecutionTime = 0.63 s  ClockTime = 1 s

Time = 0.00533063

DEBUG cell=0 t=5.28865→5.33063 step=0.0419734 Vm=1.01047e-16
DEBUG cell=0 t=5.28865→5.33063 step=0.377761 Vm=1.01047e-16
diagonal:  Solving for Vm, Initial residual = 0, Final residual = 0, No Iterations 0
ExecutionTime = 0.64 s  ClockTime = 1 s

Time = 0.0053726

DEBUG cell=0 t=5.33063→5.3726 step=0.0419734 Vm=1.01047e-16
DEBUG cell=0 t=5.33063→5.3726 step=0.377761 Vm=1.01047e-16
diagonal:  Solving for Vm, Initial residual = 0, Final residual = 0, No Iterations 0
ExecutionTime = 0.64 s  ClockTime = 1 s

Time = 0.00541457

DEBUG cell=0 t=5.3726→5.41457 step=0.0419734 Vm=1.01047e-16
DEBUG cell=0 t=5.3726→5.41457 step=0.377761 Vm=1.01047e-16
diagonal:  Solving for Vm, Initial residual = 0, Final residual = 0, No Iterations 0
ExecutionTime = 0.65 s  ClockTime = 1 s

Time = 0.00545655

DEBUG cell=0 t=5.41457→5.45655 step=0.0419734 Vm=1.01047e-16
DEBUG cell=0 t=5.41457→5.45655 step=0.377761 Vm=1.01047e-16
diagonal:  Solving for Vm, Initial residual = 0, Final residual = 0, No Iterations 0
ExecutionTime = 0.65 s  ClockTime = 1 s

Time = 0.00549852

DEBUG cell=0 t=5.45655→5.49852 step=0.0419734 Vm=1.01047e-16
DEBUG cell=0 t=5.45655→5.49852 step=0.377761 Vm=1.01047e-16
diagonal:  Solving for Vm, Initial residual = 0, Final residual = 0, No Iterations 0
ExecutionTime = 0.65 s  ClockTime = 1 s

Time = 0.00554049

DEBUG cell=0 t=5.49852→5.54049 step=0.0419734 Vm=1.01047e-16
DEBUG cell=0 t=5.49852→5.54049 step=0.377761 Vm=1.01047e-16
diagonal:  Solving for Vm, Initial residual = 0, Final residual = 0, No Iterations 0
ExecutionTime = 0.66 s  ClockTime = 1 s

Time = 0.00558247

DEBUG cell=0 t=5.54049→5.58247 step=0.0419734 Vm=1.01047e-16
DEBUG cell=0 t=5.54049→5.58247 step=0.377761 Vm=1.01047e-16
diagonal:  Solving for Vm, Initial residual = 0, Final residual = 0, No Iterations 0
ExecutionTime = 0.66 s  ClockTime = 1 s

Time = 0.00562444

DEBUG cell=0 t=5.58247→5.62444 step=0.0419734 Vm=1.01047e-16
DEBUG cell=0 t=5.58247→5.62444 step=0.377761 Vm=1.01047e-16
diagonal:  Solving for Vm, Initial residual = 0, Final residual = 0, No Iterations 0
ExecutionTime = 0.67 s  ClockTime = 1 s

Time = 0.00566641

DEBUG cell=0 t=5.62444→5.66641 step=0.0419734 Vm=1.01047e-16
DEBUG cell=0 t=5.62444→5.66641 step=0.377761 Vm=1.01047e-16
diagonal:  Solving for Vm, Initial residual = 0, Final residual = 0, No Iterations 0
ExecutionTime = 0.67 s  ClockTime = 1 s

Time = 0.00570839

DEBUG cell=0 t=5.66641→5.70839 step=0.0419734 Vm=1.01047e-16
DEBUG cell=0 t=5.66641→5.70839 step=0.377761 Vm=1.01047e-16
diagonal:  Solving for Vm, Initial residual = 0, Final residual = 0, No Iterations 0
ExecutionTime = 0.68 s  ClockTime = 1 s

Time = 0.00575036

DEBUG cell=0 t=5.70839→5.75036 step=0.0419734 Vm=1.01047e-16
DEBUG cell=0 t=5.70839→5.75036 step=0.377761 Vm=1.01047e-16
diagonal:  Solving for Vm, Initial residual = 0, Final residual = 0, No Iterations 0
ExecutionTime = 0.68 s  ClockTime = 1 s

Time = 0.00579233

DEBUG cell=0 t=5.75036→5.79233 step=0.0419734 Vm=1.01047e-16
DEBUG cell=0 t=5.75036→5.79233 step=0.377761 Vm=1.01047e-16
diagonal:  Solving for Vm, Initial residual = 0, Final residual = 0, No Iterations 0
ExecutionTime = 0.68 s  ClockTime = 1 s

Time = 0.00583431

DEBUG cell=0 t=5.79233→5.83431 step=0.0419734 Vm=1.01047e-16
DEBUG cell=0 t=5.79233→5.83431 step=0.377761 Vm=1.01047e-16
diagonal:  Solving for Vm, Initial residual = 0, Final residual = 0, No Iterations 0
ExecutionTime = 0.7 s  ClockTime = 1 s

Time = 0.00587628

DEBUG cell=0 t=5.83431→5.87628 step=0.0419734 Vm=1.01047e-16
DEBUG cell=0 t=5.83431→5.87628 step=0.377761 Vm=1.01047e-16
diagonal:  Solving for Vm, Initial residual = 0, Final residual = 0, No Iterations 0
ExecutionTime = 0.7 s  ClockTime = 1 s

Time = 0.00591825

DEBUG cell=0 t=5.87628→5.91825 step=0.0419734 Vm=1.01047e-16
DEBUG cell=0 t=5.87628→5.91825 step=0.377761 Vm=1.01047e-16
diagonal:  Solving for Vm, Initial residual = 0, Final residual = 0, No Iterations 0
ExecutionTime = 0.71 s  ClockTime = 1 s

Time = 0.00596023

DEBUG cell=0 t=5.91825→5.96023 step=0.0419734 Vm=1.01047e-16
DEBUG cell=0 t=5.91825→5.96023 step=0.377761 Vm=1.01047e-16
diagonal:  Solving for Vm, Initial residual = 0, Final residual = 0, No Iterations 0
ExecutionTime = 0.71 s  ClockTime = 1 s

Time = 0.0060022

DEBUG cell=0 t=5.96023→6.0022 step=0.0419734 Vm=1.01047e-16
DEBUG cell=0 t=5.96023→6.0022 step=0.377761 Vm=1.01047e-16
diagonal:  Solving for Vm, Initial residual = 0, Final residual = 0, No Iterations 0
ExecutionTime = 0.71 s  ClockTime = 1 s

Time = 0.00604417

DEBUG cell=0 t=6.0022→6.04417 step=0.0419734 Vm=1.01047e-16
DEBUG cell=0 t=6.0022→6.04417 step=0.377761 Vm=1.01047e-16
diagonal:  Solving for Vm, Initial residual = 0, Final residual = 0, No Iterations 0
ExecutionTime = 0.72 s  ClockTime = 1 s

Time = 0.00608615

DEBUG cell=0 t=6.04417→6.08615 step=0.0419734 Vm=1.01047e-16
DEBUG cell=0 t=6.04417→6.08615 step=0.377761 Vm=1.01047e-16
diagonal:  Solving for Vm, Initial residual = 0, Final residual = 0, No Iterations 0
ExecutionTime = 0.72 s  ClockTime = 1 s

Time = 0.00612812

DEBUG cell=0 t=6.08615→6.12812 step=0.0419734 Vm=1.01047e-16
DEBUG cell=0 t=6.08615→6.12812 step=0.377761 Vm=1.01047e-16
diagonal:  Solving for Vm, Initial residual = 0, Final residual = 0, No Iterations 0
ExecutionTime = 0.72 s  ClockTime = 1 s

Time = 0.00617009

DEBUG cell=0 t=6.12812→6.17009 step=0.0419734 Vm=1.01047e-16
DEBUG cell=0 t=6.12812→6.17009 step=0.377761 Vm=1.01047e-16
diagonal:  Solving for Vm, Initial residual = 0, Final residual = 0, No Iterations 0
ExecutionTime = 0.73 s  ClockTime = 1 s

Time = 0.00621207

DEBUG cell=0 t=6.17009→6.21207 step=0.0419734 Vm=1.01047e-16
DEBUG cell=0 t=6.17009→6.21207 step=0.377761 Vm=1.01047e-16
diagonal:  Solving for Vm, Initial residual = 0, Final residual = 0, No Iterations 0
ExecutionTime = 0.73 s  ClockTime = 1 s

Time = 0.00625404

DEBUG cell=0 t=6.21207→6.25404 step=0.0419734 Vm=1.01047e-16
DEBUG cell=0 t=6.21207→6.25404 step=0.377761 Vm=1.01047e-16
diagonal:  Solving for Vm, Initial residual = 0, Final residual = 0, No Iterations 0
ExecutionTime = 0.74 s  ClockTime = 1 s

Time = 0.00629602

DEBUG cell=0 t=6.25404→6.29602 step=0.0419734 Vm=1.01047e-16
DEBUG cell=0 t=6.25404→6.29602 step=0.377761 Vm=1.01047e-16
diagonal:  Solving for Vm, Initial residual = 0, Final residual = 0, No Iterations 0
ExecutionTime = 0.74 s  ClockTime = 1 s

Time = 0.00633799

DEBUG cell=0 t=6.29602→6.33799 step=0.0419734 Vm=1.01047e-16
DEBUG cell=0 t=6.29602→6.33799 step=0.377761 Vm=1.01047e-16
diagonal:  Solving for Vm, Initial residual = 0, Final residual = 0, No Iterations 0
ExecutionTime = 0.75 s  ClockTime = 1 s

Time = 0.00637996

DEBUG cell=0 t=6.33799→6.37996 step=0.0419734 Vm=1.01047e-16
DEBUG cell=0 t=6.33799→6.37996 step=0.377761 Vm=1.01047e-16
diagonal:  Solving for Vm, Initial residual = 0, Final residual = 0, No Iterations 0
ExecutionTime = 0.75 s  ClockTime = 1 s

Time = 0.00642194

DEBUG cell=0 t=6.37996→6.42194 step=0.0419734 Vm=1.01047e-16
DEBUG cell=0 t=6.37996→6.42194 step=0.377761 Vm=1.01047e-16
diagonal:  Solving for Vm, Initial residual = 0, Final residual = 0, No Iterations 0
ExecutionTime = 0.75 s  ClockTime = 1 s

Time = 0.00646391

DEBUG cell=0 t=6.42194→6.46391 step=0.0419734 Vm=1.01047e-16
DEBUG cell=0 t=6.42194→6.46391 step=0.377761 Vm=1.01047e-16
diagonal:  Solving for Vm, Initial residual = 0, Final residual = 0, No Iterations 0
ExecutionTime = 0.76 s  ClockTime = 1 s

Time = 0.00650588

DEBUG cell=0 t=6.46391→6.50588 step=0.0419734 Vm=1.01047e-16
DEBUG cell=0 t=6.46391→6.50588 step=0.377761 Vm=1.01047e-16
diagonal:  Solving for Vm, Initial residual = 0, Final residual = 0, No Iterations 0
ExecutionTime = 0.76 s  ClockTime = 1 s

Time = 0.00654786

DEBUG cell=0 t=6.50588→6.54786 step=0.0419734 Vm=1.01047e-16
DEBUG cell=0 t=6.50588→6.54786 step=0.377761 Vm=1.01047e-16
diagonal:  Solving for Vm, Initial residual = 0, Final residual = 0, No Iterations 0
ExecutionTime = 0.77 s  ClockTime = 1 s

Time = 0.00658983

DEBUG cell=0 t=6.54786→6.58983 step=0.0419734 Vm=1.01047e-16
DEBUG cell=0 t=6.54786→6.58983 step=0.377761 Vm=1.01047e-16
diagonal:  Solving for Vm, Initial residual = 0, Final residual = 0, No Iterations 0
ExecutionTime = 0.77 s  ClockTime = 1 s

Time = 0.0066318

DEBUG cell=0 t=6.58983→6.6318 step=0.0419734 Vm=1.01047e-16
DEBUG cell=0 t=6.58983→6.6318 step=0.377761 Vm=1.01047e-16
diagonal:  Solving for Vm, Initial residual = 0, Final residual = 0, No Iterations 0
ExecutionTime = 0.78 s  ClockTime = 1 s

Time = 0.00667378

DEBUG cell=0 t=6.6318→6.67378 step=0.0419734 Vm=1.01047e-16
DEBUG cell=0 t=6.6318→6.67378 step=0.377761 Vm=1.01047e-16
diagonal:  Solving for Vm, Initial residual = 0, Final residual = 0, No Iterations 0
ExecutionTime = 0.78 s  ClockTime = 1 s

Time = 0.00671575

DEBUG cell=0 t=6.67378→6.71575 step=0.0419734 Vm=1.01047e-16
DEBUG cell=0 t=6.67378→6.71575 step=0.377761 Vm=1.01047e-16
diagonal:  Solving for Vm, Initial residual = 0, Final residual = 0, No Iterations 0
ExecutionTime = 0.78 s  ClockTime = 1 s

Time = 0.00675772

DEBUG cell=0 t=6.71575→6.75772 step=0.0419734 Vm=1.01047e-16
DEBUG cell=0 t=6.71575→6.75772 step=0.377761 Vm=1.01047e-16
diagonal:  Solving for Vm, Initial residual = 0, Final residual = 0, No Iterations 0
ExecutionTime = 0.79 s  ClockTime = 1 s

Time = 0.0067997

DEBUG cell=0 t=6.75772→6.7997 step=0.0419734 Vm=1.01047e-16
DEBUG cell=0 t=6.75772→6.7997 step=0.377761 Vm=1.01047e-16
diagonal:  Solving for Vm, Initial residual = 0, Final residual = 0, No Iterations 0
ExecutionTime = 0.79 s  ClockTime = 1 s

Time = 0.00684167

DEBUG cell=0 t=6.7997→6.84167 step=0.0419734 Vm=1.01047e-16
DEBUG cell=0 t=6.7997→6.84167 step=0.377761 Vm=1.01047e-16
diagonal:  Solving for Vm, Initial residual = 0, Final residual = 0, No Iterations 0
ExecutionTime = 0.8 s  ClockTime = 1 s

Time = 0.00688364

DEBUG cell=0 t=6.84167→6.88364 step=0.0419734 Vm=1.01047e-16
DEBUG cell=0 t=6.84167→6.88364 step=0.377761 Vm=1.01047e-16
diagonal:  Solving for Vm, Initial residual = 0, Final residual = 0, No Iterations 0
ExecutionTime = 0.8 s  ClockTime = 1 s

Time = 0.00692562

DEBUG cell=0 t=6.88364→6.92562 step=0.0419734 Vm=1.01047e-16
DEBUG cell=0 t=6.88364→6.92562 step=0.377761 Vm=1.01047e-16
diagonal:  Solving for Vm, Initial residual = 0, Final residual = 0, No Iterations 0
ExecutionTime = 0.8 s  ClockTime = 1 s

Time = 0.00696759

DEBUG cell=0 t=6.92562→6.96759 step=0.0419734 Vm=1.01047e-16
DEBUG cell=0 t=6.92562→6.96759 step=0.377761 Vm=1.01047e-16
diagonal:  Solving for Vm, Initial residual = 0, Final residual = 0, No Iterations 0
ExecutionTime = 0.81 s  ClockTime = 1 s

Time = 0.00700956

DEBUG cell=0 t=6.96759→7.00956 step=0.0419734 Vm=1.01047e-16
DEBUG cell=0 t=6.96759→7.00956 step=0.377761 Vm=1.01047e-16
diagonal:  Solving for Vm, Initial residual = 0, Final residual = 0, No Iterations 0
ExecutionTime = 0.81 s  ClockTime = 1 s

Time = 0.00705154

DEBUG cell=0 t=7.00956→7.05154 step=0.0419734 Vm=1.01047e-16
DEBUG cell=0 t=7.00956→7.05154 step=0.377761 Vm=1.01047e-16
diagonal:  Solving for Vm, Initial residual = 0, Final residual = 0, No Iterations 0
ExecutionTime = 0.82 s  ClockTime = 1 s

Time = 0.00709351

DEBUG cell=0 t=7.05154→7.09351 step=0.0419734 Vm=1.01047e-16
DEBUG cell=0 t=7.05154→7.09351 step=0.377761 Vm=1.01047e-16
diagonal:  Solving for Vm, Initial residual = 0, Final residual = 0, No Iterations 0
ExecutionTime = 0.83 s  ClockTime = 1 s

Time = 0.00713548

DEBUG cell=0 t=7.09351→7.13548 step=0.0419734 Vm=1.01047e-16
DEBUG cell=0 t=7.09351→7.13548 step=0.377761 Vm=1.01047e-16
diagonal:  Solving for Vm, Initial residual = 0, Final residual = 0, No Iterations 0
ExecutionTime = 0.83 s  ClockTime = 1 s

Time = 0.00717746

DEBUG cell=0 t=7.13548→7.17746 step=0.0419734 Vm=1.01047e-16
DEBUG cell=0 t=7.13548→7.17746 step=0.377761 Vm=1.01047e-16
diagonal:  Solving for Vm, Initial residual = 0, Final residual = 0, No Iterations 0
ExecutionTime = 0.84 s  ClockTime = 1 s

Time = 0.00721943

DEBUG cell=0 t=7.17746→7.21943 step=0.0419734 Vm=1.01047e-16
DEBUG cell=0 t=7.17746→7.21943 step=0.377761 Vm=1.01047e-16
diagonal:  Solving for Vm, Initial residual = 0, Final residual = 0, No Iterations 0
ExecutionTime = 0.84 s  ClockTime = 1 s

Time = 0.0072614

DEBUG cell=0 t=7.21943→7.2614 step=0.0419734 Vm=1.01047e-16
DEBUG cell=0 t=7.21943→7.2614 step=0.377761 Vm=1.01047e-16
diagonal:  Solving for Vm, Initial residual = 0, Final residual = 0, No Iterations 0
ExecutionTime = 0.84 s  ClockTime = 1 s

Time = 0.00730338

DEBUG cell=0 t=7.2614→7.30338 step=0.0419734 Vm=1.01047e-16
DEBUG cell=0 t=7.2614→7.30338 step=0.377761 Vm=1.01047e-16
diagonal:  Solving for Vm, Initial residual = 0, Final residual = 0, No Iterations 0
ExecutionTime = 0.85 s  ClockTime = 1 s

Time = 0.00734535

DEBUG cell=0 t=7.30338→7.34535 step=0.0419734 Vm=1.01047e-16
DEBUG cell=0 t=7.30338→7.34535 step=0.377761 Vm=1.01047e-16
diagonal:  Solving for Vm, Initial residual = 0, Final residual = 0, No Iterations 0
ExecutionTime = 0.85 s  ClockTime = 1 s

Time = 0.00738732

DEBUG cell=0 t=7.34535→7.38732 step=0.0419734 Vm=1.01047e-16
DEBUG cell=0 t=7.34535→7.38732 step=0.377761 Vm=1.01047e-16
diagonal:  Solving for Vm, Initial residual = 0, Final residual = 0, No Iterations 0
ExecutionTime = 0.86 s  ClockTime = 1 s

Time = 0.0074293

DEBUG cell=0 t=7.38732→7.4293 step=0.0419734 Vm=1.01047e-16
DEBUG cell=0 t=7.38732→7.4293 step=0.377761 Vm=1.01047e-16
diagonal:  Solving for Vm, Initial residual = 0, Final residual = 0, No Iterations 0
ExecutionTime = 0.86 s  ClockTime = 1 s

Time = 0.00747127

DEBUG cell=0 t=7.4293→7.47127 step=0.0419734 Vm=1.01047e-16
DEBUG cell=0 t=7.4293→7.47127 step=0.377761 Vm=1.01047e-16
diagonal:  Solving for Vm, Initial residual = 0, Final residual = 0, No Iterations 0
ExecutionTime = 0.87 s  ClockTime = 1 s

Time = 0.00751324

DEBUG cell=0 t=7.47127→7.51324 step=0.0419734 Vm=1.01047e-16
DEBUG cell=0 t=7.47127→7.51324 step=0.377761 Vm=1.01047e-16
diagonal:  Solving for Vm, Initial residual = 0, Final residual = 0, No Iterations 0
ExecutionTime = 0.87 s  ClockTime = 1 s

Time = 0.00755522

DEBUG cell=0 t=7.51324→7.55522 step=0.0419734 Vm=1.01047e-16
DEBUG cell=0 t=7.51324→7.55522 step=0.377761 Vm=1.01047e-16
diagonal:  Solving for Vm, Initial residual = 0, Final residual = 0, No Iterations 0
ExecutionTime = 0.87 s  ClockTime = 1 s

Time = 0.00759719

DEBUG cell=0 t=7.55522→7.59719 step=0.0419734 Vm=1.01047e-16
DEBUG cell=0 t=7.55522→7.59719 step=0.377761 Vm=1.01047e-16
diagonal:  Solving for Vm, Initial residual = 0, Final residual = 0, No Iterations 0
ExecutionTime = 0.88 s  ClockTime = 1 s

Time = 0.00763917

DEBUG cell=0 t=7.59719→7.63917 step=0.0419734 Vm=1.01047e-16
DEBUG cell=0 t=7.59719→7.63917 step=0.377761 Vm=1.01047e-16
diagonal:  Solving for Vm, Initial residual = 0, Final residual = 0, No Iterations 0
ExecutionTime = 0.88 s  ClockTime = 1 s

Time = 0.00768114

DEBUG cell=0 t=7.63917→7.68114 step=0.0419734 Vm=1.01047e-16
DEBUG cell=0 t=7.63917→7.68114 step=0.377761 Vm=1.01047e-16
diagonal:  Solving for Vm, Initial residual = 0, Final residual = 0, No Iterations 0
ExecutionTime = 0.89 s  ClockTime = 1 s

Time = 0.00772311

DEBUG cell=0 t=7.68114→7.72311 step=0.0419734 Vm=1.01047e-16
DEBUG cell=0 t=7.68114→7.72311 step=0.377761 Vm=1.01047e-16
diagonal:  Solving for Vm, Initial residual = 0, Final residual = 0, No Iterations 0
ExecutionTime = 0.89 s  ClockTime = 1 s

Time = 0.00776509

DEBUG cell=0 t=7.72311→7.76509 step=0.0419734 Vm=1.01047e-16
DEBUG cell=0 t=7.72311→7.76509 step=0.377761 Vm=1.01047e-16
diagonal:  Solving for Vm, Initial residual = 0, Final residual = 0, No Iterations 0
ExecutionTime = 0.89 s  ClockTime = 1 s

Time = 0.00780706

DEBUG cell=0 t=7.76509→7.80706 step=0.0419734 Vm=1.01047e-16
DEBUG cell=0 t=7.76509→7.80706 step=0.377761 Vm=1.01047e-16
diagonal:  Solving for Vm, Initial residual = 0, Final residual = 0, No Iterations 0
ExecutionTime = 0.9 s  ClockTime = 1 s

Time = 0.00784903

DEBUG cell=0 t=7.80706→7.84903 step=0.0419734 Vm=1.01047e-16
DEBUG cell=0 t=7.80706→7.84903 step=0.377761 Vm=1.01047e-16
diagonal:  Solving for Vm, Initial residual = 0, Final residual = 0, No Iterations 0
ExecutionTime = 0.9 s  ClockTime = 1 s

Time = 0.00789101

DEBUG cell=0 t=7.84903→7.89101 step=0.0419734 Vm=1.01047e-16
DEBUG cell=0 t=7.84903→7.89101 step=0.377761 Vm=1.01047e-16
diagonal:  Solving for Vm, Initial residual = 0, Final residual = 0, No Iterations 0
ExecutionTime = 0.91 s  ClockTime = 1 s

Time = 0.00793298

DEBUG cell=0 t=7.89101→7.93298 step=0.0419734 Vm=1.01047e-16
DEBUG cell=0 t=7.89101→7.93298 step=0.377761 Vm=1.01047e-16
diagonal:  Solving for Vm, Initial residual = 0, Final residual = 0, No Iterations 0
ExecutionTime = 0.91 s  ClockTime = 1 s

Time = 0.00797495

DEBUG cell=0 t=7.93298→7.97495 step=0.0419734 Vm=1.01047e-16
DEBUG cell=0 t=7.93298→7.97495 step=0.377761 Vm=1.01047e-16
diagonal:  Solving for Vm, Initial residual = 0, Final residual = 0, No Iterations 0
ExecutionTime = 0.91 s  ClockTime = 1 s

Time = 0.00801693

DEBUG cell=0 t=7.97495→8.01693 step=0.0419734 Vm=1.01047e-16
DEBUG cell=0 t=7.97495→8.01693 step=0.377761 Vm=1.01047e-16
diagonal:  Solving for Vm, Initial residual = 0, Final residual = 0, No Iterations 0
ExecutionTime = 0.92 s  ClockTime = 1 s

Time = 0.0080589

DEBUG cell=0 t=8.01693→8.0589 step=0.0419734 Vm=1.01047e-16
DEBUG cell=0 t=8.01693→8.0589 step=0.377761 Vm=1.01047e-16
diagonal:  Solving for Vm, Initial residual = 0, Final residual = 0, No Iterations 0
ExecutionTime = 0.92 s  ClockTime = 1 s

Time = 0.00810087

DEBUG cell=0 t=8.0589→8.10087 step=0.0419734 Vm=1.01047e-16
DEBUG cell=0 t=8.0589→8.10087 step=0.377761 Vm=1.01047e-16
diagonal:  Solving for Vm, Initial residual = 0, Final residual = 0, No Iterations 0
ExecutionTime = 0.92 s  ClockTime = 1 s

Time = 0.00814285

DEBUG cell=0 t=8.10087→8.14285 step=0.0419734 Vm=1.01047e-16
DEBUG cell=0 t=8.10087→8.14285 step=0.377761 Vm=1.01047e-16
diagonal:  Solving for Vm, Initial residual = 0, Final residual = 0, No Iterations 0
ExecutionTime = 0.93 s  ClockTime = 1 s

Time = 0.00818482

DEBUG cell=0 t=8.14285→8.18482 step=0.0419734 Vm=1.01047e-16
DEBUG cell=0 t=8.14285→8.18482 step=0.377761 Vm=1.01047e-16
diagonal:  Solving for Vm, Initial residual = 0, Final residual = 0, No Iterations 0
ExecutionTime = 0.93 s  ClockTime = 1 s

Time = 0.00822679

DEBUG cell=0 t=8.18482→8.22679 step=0.0419734 Vm=1.01047e-16
DEBUG cell=0 t=8.18482→8.22679 step=0.377761 Vm=1.01047e-16
diagonal:  Solving for Vm, Initial residual = 0, Final residual = 0, No Iterations 0
ExecutionTime = 0.95 s  ClockTime = 1 s

Time = 0.00826877

DEBUG cell=0 t=8.22679→8.26877 step=0.0419734 Vm=1.01047e-16
DEBUG cell=0 t=8.22679→8.26877 step=0.377761 Vm=1.01047e-16
diagonal:  Solving for Vm, Initial residual = 0, Final residual = 0, No Iterations 0
ExecutionTime = 0.95 s  ClockTime = 1 s

Time = 0.00831074

DEBUG cell=0 t=8.26877→8.31074 step=0.0419734 Vm=1.01047e-16
DEBUG cell=0 t=8.26877→8.31074 step=0.377761 Vm=1.01047e-16
diagonal:  Solving for Vm, Initial residual = 0, Final residual = 0, No Iterations 0
ExecutionTime = 0.95 s  ClockTime = 1 s

Time = 0.00835271

DEBUG cell=0 t=8.31074→8.35271 step=0.0419734 Vm=1.01047e-16
DEBUG cell=0 t=8.31074→8.35271 step=0.377761 Vm=1.01047e-16
diagonal:  Solving for Vm, Initial residual = 0, Final residual = 0, No Iterations 0
ExecutionTime = 0.96 s  ClockTime = 1 s

Time = 0.00839469

DEBUG cell=0 t=8.35271→8.39469 step=0.0419734 Vm=1.01047e-16
DEBUG cell=0 t=8.35271→8.39469 step=0.377761 Vm=1.01047e-16
diagonal:  Solving for Vm, Initial residual = 0, Final residual = 0, No Iterations 0
ExecutionTime = 0.96 s  ClockTime = 1 s

Time = 0.00843666

DEBUG cell=0 t=8.39469→8.43666 step=0.0419734 Vm=1.01047e-16
DEBUG cell=0 t=8.39469→8.43666 step=0.377761 Vm=1.01047e-16
diagonal:  Solving for Vm, Initial residual = 0, Final residual = 0, No Iterations 0
ExecutionTime = 0.96 s  ClockTime = 1 s

Time = 0.00847863

DEBUG cell=0 t=8.43666→8.47863 step=0.0419734 Vm=1.01047e-16
DEBUG cell=0 t=8.43666→8.47863 step=0.377761 Vm=1.01047e-16
diagonal:  Solving for Vm, Initial residual = 0, Final residual = 0, No Iterations 0
ExecutionTime = 0.97 s  ClockTime = 2 s

Time = 0.00852061

DEBUG cell=0 t=8.47863→8.52061 step=0.0419734 Vm=1.01047e-16
DEBUG cell=0 t=8.47863→8.52061 step=0.377761 Vm=1.01047e-16
diagonal:  Solving for Vm, Initial residual = 0, Final residual = 0, No Iterations 0
ExecutionTime = 0.97 s  ClockTime = 2 s

Time = 0.00856258

DEBUG cell=0 t=8.52061→8.56258 step=0.0419734 Vm=1.01047e-16
DEBUG cell=0 t=8.52061→8.56258 step=0.377761 Vm=1.01047e-16
diagonal:  Solving for Vm, Initial residual = 0, Final residual = 0, No Iterations 0
ExecutionTime = 0.97 s  ClockTime = 2 s

Time = 0.00860455

DEBUG cell=0 t=8.56258→8.60455 step=0.0419734 Vm=1.01047e-16
DEBUG cell=0 t=8.56258→8.60455 step=0.377761 Vm=1.01047e-16
diagonal:  Solving for Vm, Initial residual = 0, Final residual = 0, No Iterations 0
ExecutionTime = 0.98 s  ClockTime = 2 s

Time = 0.00864653

DEBUG cell=0 t=8.60455→8.64653 step=0.0419734 Vm=1.01047e-16
DEBUG cell=0 t=8.60455→8.64653 step=0.377761 Vm=1.01047e-16
diagonal:  Solving for Vm, Initial residual = 0, Final residual = 0, No Iterations 0
ExecutionTime = 0.98 s  ClockTime = 2 s

Time = 0.0086885

DEBUG cell=0 t=8.64653→8.6885 step=0.0419734 Vm=1.01047e-16
DEBUG cell=0 t=8.64653→8.6885 step=0.377761 Vm=1.01047e-16
diagonal:  Solving for Vm, Initial residual = 0, Final residual = 0, No Iterations 0
ExecutionTime = 0.99 s  ClockTime = 2 s

Time = 0.00873047

DEBUG cell=0 t=8.6885→8.73047 step=0.0419734 Vm=1.01047e-16
DEBUG cell=0 t=8.6885→8.73047 step=0.377761 Vm=1.01047e-16
diagonal:  Solving for Vm, Initial residual = 0, Final residual = 0, No Iterations 0
ExecutionTime = 0.99 s  ClockTime = 2 s

Time = 0.00877245

DEBUG cell=0 t=8.73047→8.77245 step=0.0419734 Vm=1.01047e-16
DEBUG cell=0 t=8.73047→8.77245 step=0.377761 Vm=1.01047e-16
diagonal:  Solving for Vm, Initial residual = 0, Final residual = 0, No Iterations 0
ExecutionTime = 0.99 s  ClockTime = 2 s

Time = 0.00881442

DEBUG cell=0 t=8.77245→8.81442 step=0.0419734 Vm=1.01047e-16
DEBUG cell=0 t=8.77245→8.81442 step=0.377761 Vm=1.01047e-16
diagonal:  Solving for Vm, Initial residual = 0, Final residual = 0, No Iterations 0
ExecutionTime = 1 s  ClockTime = 2 s

Time = 0.00885639

DEBUG cell=0 t=8.81442→8.85639 step=0.0419734 Vm=1.01047e-16
DEBUG cell=0 t=8.81442→8.85639 step=0.377761 Vm=1.01047e-16
diagonal:  Solving for Vm, Initial residual = 0, Final residual = 0, No Iterations 0
ExecutionTime = 1 s  ClockTime = 2 s

Time = 0.00889837

DEBUG cell=0 t=8.85639→8.89837 step=0.0419734 Vm=1.01047e-16
DEBUG cell=0 t=8.85639→8.89837 step=0.377761 Vm=1.01047e-16
diagonal:  Solving for Vm, Initial residual = 0, Final residual = 0, No Iterations 0
ExecutionTime = 1 s  ClockTime = 2 s

Time = 0.00894034

DEBUG cell=0 t=8.89837→8.94034 step=0.0419734 Vm=1.01047e-16
DEBUG cell=0 t=8.89837→8.94034 step=0.377761 Vm=1.01047e-16
diagonal:  Solving for Vm, Initial residual = 0, Final residual = 0, No Iterations 0
ExecutionTime = 1.01 s  ClockTime = 2 s

Time = 0.00898231

DEBUG cell=0 t=8.94034→8.98231 step=0.0419734 Vm=1.01047e-16
DEBUG cell=0 t=8.94034→8.98231 step=0.377761 Vm=1.01047e-16
diagonal:  Solving for Vm, Initial residual = 0, Final residual = 0, No Iterations 0
ExecutionTime = 1.01 s  ClockTime = 2 s

Time = 0.00902429

DEBUG cell=0 t=8.98231→9.02429 step=0.0419734 Vm=1.01047e-16
DEBUG cell=0 t=8.98231→9.02429 step=0.377761 Vm=1.01047e-16
diagonal:  Solving for Vm, Initial residual = 0, Final residual = 0, No Iterations 0
ExecutionTime = 1.01 s  ClockTime = 2 s

Time = 0.00906626

DEBUG cell=0 t=9.02429→9.06626 step=0.0419734 Vm=1.01047e-16
DEBUG cell=0 t=9.02429→9.06626 step=0.377761 Vm=1.01047e-16
diagonal:  Solving for Vm, Initial residual = 0, Final residual = 0, No Iterations 0
ExecutionTime = 1.02 s  ClockTime = 2 s

Time = 0.00910824

DEBUG cell=0 t=9.06626→9.10824 step=0.0419734 Vm=1.01047e-16
DEBUG cell=0 t=9.06626→9.10824 step=0.377761 Vm=1.01047e-16
diagonal:  Solving for Vm, Initial residual = 0, Final residual = 0, No Iterations 0
ExecutionTime = 1.02 s  ClockTime = 2 s

Time = 0.00915021

DEBUG cell=0 t=9.10824→9.15021 step=0.0419734 Vm=1.01047e-16
DEBUG cell=0 t=9.10824→9.15021 step=0.377761 Vm=1.01047e-16
diagonal:  Solving for Vm, Initial residual = 0, Final residual = 0, No Iterations 0
ExecutionTime = 1.03 s  ClockTime = 2 s

Time = 0.00919218

DEBUG cell=0 t=9.15021→9.19218 step=0.0419734 Vm=1.01047e-16
DEBUG cell=0 t=9.15021→9.19218 step=0.377761 Vm=1.01047e-16
diagonal:  Solving for Vm, Initial residual = 0, Final residual = 0, No Iterations 0
ExecutionTime = 1.03 s  ClockTime = 2 s

Time = 0.00923416

DEBUG cell=0 t=9.19218→9.23416 step=0.0419734 Vm=1.01047e-16
DEBUG cell=0 t=9.19218→9.23416 step=0.377761 Vm=1.01047e-16
diagonal:  Solving for Vm, Initial residual = 0, Final residual = 0, No Iterations 0
ExecutionTime = 1.03 s  ClockTime = 2 s

Time = 0.00927613

DEBUG cell=0 t=9.23416→9.27613 step=0.0419734 Vm=1.01047e-16
DEBUG cell=0 t=9.23416→9.27613 step=0.377761 Vm=1.01047e-16
diagonal:  Solving for Vm, Initial residual = 0, Final residual = 0, No Iterations 0
ExecutionTime = 1.04 s  ClockTime = 2 s

Time = 0.0093181

DEBUG cell=0 t=9.27613→9.3181 step=0.0419734 Vm=1.01047e-16
DEBUG cell=0 t=9.27613→9.3181 step=0.377761 Vm=1.01047e-16
diagonal:  Solving for Vm, Initial residual = 0, Final residual = 0, No Iterations 0
ExecutionTime = 1.04 s  ClockTime = 2 s

Time = 0.00936008

DEBUG cell=0 t=9.3181→9.36008 step=0.0419734 Vm=1.01047e-16
DEBUG cell=0 t=9.3181→9.36008 step=0.377761 Vm=1.01047e-16
diagonal:  Solving for Vm, Initial residual = 0, Final residual = 0, No Iterations 0
ExecutionTime = 1.04 s  ClockTime = 2 s

Time = 0.00940205

DEBUG cell=0 t=9.36008→9.40205 step=0.0419734 Vm=1.01047e-16
DEBUG cell=0 t=9.36008→9.40205 step=0.377761 Vm=1.01047e-16
diagonal:  Solving for Vm, Initial residual = 0, Final residual = 0, No Iterations 0
ExecutionTime = 1.05 s  ClockTime = 2 s

Time = 0.00944402

DEBUG cell=0 t=9.40205→9.44402 step=0.0419734 Vm=1.01047e-16
DEBUG cell=0 t=9.40205→9.44402 step=0.377761 Vm=1.01047e-16
diagonal:  Solving for Vm, Initial residual = 0, Final residual = 0, No Iterations 0
ExecutionTime = 1.05 s  ClockTime = 2 s

Time = 0.009486

DEBUG cell=0 t=9.44402→9.486 step=0.0419734 Vm=1.01047e-16
DEBUG cell=0 t=9.44402→9.486 step=0.377761 Vm=1.01047e-16
diagonal:  Solving for Vm, Initial residual = 0, Final residual = 0, No Iterations 0
ExecutionTime = 1.06 s  ClockTime = 2 s

Time = 0.00952797

DEBUG cell=0 t=9.486→9.52797 step=0.0419734 Vm=1.01047e-16
DEBUG cell=0 t=9.486→9.52797 step=0.377761 Vm=1.01047e-16
diagonal:  Solving for Vm, Initial residual = 0, Final residual = 0, No Iterations 0
ExecutionTime = 1.07 s  ClockTime = 2 s

Time = 0.00956994

DEBUG cell=0 t=9.52797→9.56994 step=0.0419734 Vm=1.01047e-16
DEBUG cell=0 t=9.52797→9.56994 step=0.377761 Vm=1.01047e-16
diagonal:  Solving for Vm, Initial residual = 0, Final residual = 0, No Iterations 0
ExecutionTime = 1.07 s  ClockTime = 2 s

Time = 0.00961192

DEBUG cell=0 t=9.56994→9.61192 step=0.0419734 Vm=1.01047e-16
DEBUG cell=0 t=9.56994→9.61192 step=0.377761 Vm=1.01047e-16
diagonal:  Solving for Vm, Initial residual = 0, Final residual = 0, No Iterations 0
ExecutionTime = 1.08 s  ClockTime = 2 s

Time = 0.00965389

DEBUG cell=0 t=9.61192→9.65389 step=0.0419734 Vm=1.01047e-16
DEBUG cell=0 t=9.61192→9.65389 step=0.377761 Vm=1.01047e-16
diagonal:  Solving for Vm, Initial residual = 0, Final residual = 0, No Iterations 0
ExecutionTime = 1.08 s  ClockTime = 2 s

Time = 0.00969586

DEBUG cell=0 t=9.65389→9.69586 step=0.0419734 Vm=1.01047e-16
DEBUG cell=0 t=9.65389→9.69586 step=0.377761 Vm=1.01047e-16
diagonal:  Solving for Vm, Initial residual = 0, Final residual = 0, No Iterations 0
ExecutionTime = 1.08 s  ClockTime = 2 s

Time = 0.00973784

DEBUG cell=0 t=9.69586→9.73784 step=0.0419734 Vm=1.01047e-16
DEBUG cell=0 t=9.69586→9.73784 step=0.377761 Vm=1.01047e-16
diagonal:  Solving for Vm, Initial residual = 0, Final residual = 0, No Iterations 0
ExecutionTime = 1.09 s  ClockTime = 2 s

Time = 0.00977981

DEBUG cell=0 t=9.73784→9.77981 step=0.0419734 Vm=1.01047e-16
DEBUG cell=0 t=9.73784→9.77981 step=0.377761 Vm=1.01047e-16
diagonal:  Solving for Vm, Initial residual = 0, Final residual = 0, No Iterations 0
ExecutionTime = 1.09 s  ClockTime = 2 s

Time = 0.00982178

DEBUG cell=0 t=9.77981→9.82178 step=0.0419734 Vm=1.01047e-16
DEBUG cell=0 t=9.77981→9.82178 step=0.377761 Vm=1.01047e-16
diagonal:  Solving for Vm, Initial residual = 0, Final residual = 0, No Iterations 0
ExecutionTime = 1.09 s  ClockTime = 2 s

Time = 0.00986376

DEBUG cell=0 t=9.82178→9.86376 step=0.0419734 Vm=1.01047e-16
DEBUG cell=0 t=9.82178→9.86376 step=0.377761 Vm=1.01047e-16
diagonal:  Solving for Vm, Initial residual = 0, Final residual = 0, No Iterations 0
ExecutionTime = 1.1 s  ClockTime = 2 s

Time = 0.00990573

DEBUG cell=0 t=9.86376→9.90573 step=0.0419734 Vm=1.01047e-16
DEBUG cell=0 t=9.86376→9.90573 step=0.377761 Vm=1.01047e-16
diagonal:  Solving for Vm, Initial residual = 0, Final residual = 0, No Iterations 0
ExecutionTime = 1.1 s  ClockTime = 2 s

Time = 0.0099477

DEBUG cell=0 t=9.90573→9.9477 step=0.0419734 Vm=1.01047e-16
DEBUG cell=0 t=9.90573→9.9477 step=0.377761 Vm=1.01047e-16
diagonal:  Solving for Vm, Initial residual = 0, Final residual = 0, No Iterations 0
ExecutionTime = 1.1 s  ClockTime = 2 s

Time = 0.00998968

DEBUG cell=0 t=9.9477→9.98968 step=0.0419734 Vm=1.01047e-16
DEBUG cell=0 t=9.9477→9.98968 step=0.377761 Vm=1.01047e-16
diagonal:  Solving for Vm, Initial residual = 0, Final residual = 0, No Iterations 0
ExecutionTime = 1.12 s  ClockTime = 2 s

Time = 0.0100317

DEBUG cell=0 t=9.98968→10.0317 step=0.0419734 Vm=1.01047e-16
DEBUG cell=0 t=9.98968→10.0317 step=0.377761 Vm=1.01047e-16
diagonal:  Solving for Vm, Initial residual = 0, Final residual = 0, No Iterations 0
ExecutionTime = 1.13 s  ClockTime = 2 s

Time = 0.0100736

DEBUG cell=0 t=10.0317→10.0736 step=0.0419734 Vm=1.01047e-16
DEBUG cell=0 t=10.0317→10.0736 step=0.377761 Vm=1.01047e-16
diagonal:  Solving for Vm, Initial residual = 0, Final residual = 0, No Iterations 0
ExecutionTime = 1.14 s  ClockTime = 2 s

Time = 0.0101156

DEBUG cell=0 t=10.0736→10.1156 step=0.0419734 Vm=1.01047e-16
DEBUG cell=0 t=10.0736→10.1156 step=0.377761 Vm=1.01047e-16
diagonal:  Solving for Vm, Initial residual = 0, Final residual = 0, No Iterations 0
ExecutionTime = 1.14 s  ClockTime = 2 s

Time = 0.0101576

DEBUG cell=0 t=10.1156→10.1576 step=0.0419734 Vm=1.01047e-16
DEBUG cell=0 t=10.1156→10.1576 step=0.377761 Vm=1.01047e-16
diagonal:  Solving for Vm, Initial residual = 0, Final residual = 0, No Iterations 0
ExecutionTime = 1.15 s  ClockTime = 2 s

Time = 0.0101995

DEBUG cell=0 t=10.1576→10.1995 step=0.0419734 Vm=1.01047e-16
DEBUG cell=0 t=10.1576→10.1995 step=0.377761 Vm=1.01047e-16
diagonal:  Solving for Vm, Initial residual = 0, Final residual = 0, No Iterations 0
ExecutionTime = 1.15 s  ClockTime = 2 s

Time = 0.0102415

DEBUG cell=0 t=10.1995→10.2415 step=0.0419734 Vm=1.01047e-16
DEBUG cell=0 t=10.1995→10.2415 step=0.377761 Vm=1.01047e-16
diagonal:  Solving for Vm, Initial residual = 0, Final residual = 0, No Iterations 0
ExecutionTime = 1.15 s  ClockTime = 2 s

Time = 0.0102835

DEBUG cell=0 t=10.2415→10.2835 step=0.0419734 Vm=1.01047e-16
DEBUG cell=0 t=10.2415→10.2835 step=0.377761 Vm=1.01047e-16
diagonal:  Solving for Vm, Initial residual = 0, Final residual = 0, No Iterations 0
ExecutionTime = 1.16 s  ClockTime = 2 s

Time = 0.0103255

DEBUG cell=0 t=10.2835→10.3255 step=0.0419734 Vm=1.01047e-16
DEBUG cell=0 t=10.2835→10.3255 step=0.377761 Vm=1.01047e-16
diagonal:  Solving for Vm, Initial residual = 0, Final residual = 0, No Iterations 0
ExecutionTime = 1.17 s  ClockTime = 2 s

Time = 0.0103674

DEBUG cell=0 t=10.3255→10.3674 step=0.0419734 Vm=1.01047e-16
DEBUG cell=0 t=10.3255→10.3674 step=0.377761 Vm=1.01047e-16
diagonal:  Solving for Vm, Initial residual = 0, Final residual = 0, No Iterations 0
ExecutionTime = 1.17 s  ClockTime = 2 s

Time = 0.0104094

DEBUG cell=0 t=10.3674→10.4094 step=0.0419734 Vm=1.01047e-16
DEBUG cell=0 t=10.3674→10.4094 step=0.377761 Vm=1.01047e-16
diagonal:  Solving for Vm, Initial residual = 0, Final residual = 0, No Iterations 0
ExecutionTime = 1.18 s  ClockTime = 2 s

Time = 0.0104514

DEBUG cell=0 t=10.4094→10.4514 step=0.0419734 Vm=1.01047e-16
DEBUG cell=0 t=10.4094→10.4514 step=0.377761 Vm=1.01047e-16
diagonal:  Solving for Vm, Initial residual = 0, Final residual = 0, No Iterations 0
ExecutionTime = 1.18 s  ClockTime = 2 s

Time = 0.0104934

DEBUG cell=0 t=10.4514→10.4934 step=0.0419734 Vm=1.01047e-16
DEBUG cell=0 t=10.4514→10.4934 step=0.377761 Vm=1.01047e-16
diagonal:  Solving for Vm, Initial residual = 0, Final residual = 0, No Iterations 0
ExecutionTime = 1.18 s  ClockTime = 2 s

Time = 0.0105353

DEBUG cell=0 t=10.4934→10.5353 step=0.0419734 Vm=1.01047e-16
DEBUG cell=0 t=10.4934→10.5353 step=0.377761 Vm=1.01047e-16
diagonal:  Solving for Vm, Initial residual = 0, Final residual = 0, No Iterations 0
ExecutionTime = 1.19 s  ClockTime = 2 s

Time = 0.0105773

DEBUG cell=0 t=10.5353→10.5773 step=0.0419734 Vm=1.01047e-16
DEBUG cell=0 t=10.5353→10.5773 step=0.377761 Vm=1.01047e-16
diagonal:  Solving for Vm, Initial residual = 0, Final residual = 0, No Iterations 0
ExecutionTime = 1.19 s  ClockTime = 2 s

Time = 0.0106193

DEBUG cell=0 t=10.5773→10.6193 step=0.0419734 Vm=1.01047e-16
DEBUG cell=0 t=10.5773→10.6193 step=0.377761 Vm=1.01047e-16
diagonal:  Solving for Vm, Initial residual = 0, Final residual = 0, No Iterations 0
ExecutionTime = 1.2 s  ClockTime = 2 s

Time = 0.0106613

DEBUG cell=0 t=10.6193→10.6613 step=0.0419734 Vm=1.01047e-16
DEBUG cell=0 t=10.6193→10.6613 step=0.377761 Vm=1.01047e-16
diagonal:  Solving for Vm, Initial residual = 0, Final residual = 0, No Iterations 0
ExecutionTime = 1.2 s  ClockTime = 2 s

Time = 0.0107032

DEBUG cell=0 t=10.6613→10.7032 step=0.0419734 Vm=1.01047e-16
DEBUG cell=0 t=10.6613→10.7032 step=0.377761 Vm=1.01047e-16
diagonal:  Solving for Vm, Initial residual = 0, Final residual = 0, No Iterations 0
ExecutionTime = 1.2 s  ClockTime = 2 s

Time = 0.0107452

DEBUG cell=0 t=10.7032→10.7452 step=0.0419734 Vm=1.01047e-16
DEBUG cell=0 t=10.7032→10.7452 step=0.377761 Vm=1.01047e-16
diagonal:  Solving for Vm, Initial residual = 0, Final residual = 0, No Iterations 0
ExecutionTime = 1.21 s  ClockTime = 2 s

Time = 0.0107872

DEBUG cell=0 t=10.7452→10.7872 step=0.0419734 Vm=1.01047e-16
DEBUG cell=0 t=10.7452→10.7872 step=0.377761 Vm=1.01047e-16
diagonal:  Solving for Vm, Initial residual = 0, Final residual = 0, No Iterations 0
ExecutionTime = 1.21 s  ClockTime = 2 s

Time = 0.0108291

DEBUG cell=0 t=10.7872→10.8291 step=0.0419734 Vm=1.01047e-16
DEBUG cell=0 t=10.7872→10.8291 step=0.377761 Vm=1.01047e-16
diagonal:  Solving for Vm, Initial residual = 0, Final residual = 0, No Iterations 0
ExecutionTime = 1.21 s  ClockTime = 2 s

Time = 0.0108711

DEBUG cell=0 t=10.8291→10.8711 step=0.0419734 Vm=1.01047e-16
DEBUG cell=0 t=10.8291→10.8711 step=0.377761 Vm=1.01047e-16
diagonal:  Solving for Vm, Initial residual = 0, Final residual = 0, No Iterations 0
ExecutionTime = 1.22 s  ClockTime = 2 s

Time = 0.0109131

DEBUG cell=0 t=10.8711→10.9131 step=0.0419734 Vm=1.01047e-16
DEBUG cell=0 t=10.8711→10.9131 step=0.377761 Vm=1.01047e-16
diagonal:  Solving for Vm, Initial residual = 0, Final residual = 0, No Iterations 0
ExecutionTime = 1.22 s  ClockTime = 2 s

Time = 0.0109551

DEBUG cell=0 t=10.9131→10.9551 step=0.0419734 Vm=1.01047e-16
DEBUG cell=0 t=10.9131→10.9551 step=0.377761 Vm=1.01047e-16
diagonal:  Solving for Vm, Initial residual = 0, Final residual = 0, No Iterations 0
ExecutionTime = 1.22 s  ClockTime = 2 s

Time = 0.010997

DEBUG cell=0 t=10.9551→10.997 step=0.0419734 Vm=1.01047e-16
DEBUG cell=0 t=10.9551→10.997 step=0.377761 Vm=1.01047e-16
diagonal:  Solving for Vm, Initial residual = 0, Final residual = 0, No Iterations 0
ExecutionTime = 1.23 s  ClockTime = 2 s

Time = 0.011039

DEBUG cell=0 t=10.997→11.039 step=0.0419734 Vm=1.01047e-16
DEBUG cell=0 t=10.997→11.039 step=0.377761 Vm=1.01047e-16
diagonal:  Solving for Vm, Initial residual = 0, Final residual = 0, No Iterations 0
ExecutionTime = 1.23 s  ClockTime = 2 s

Time = 0.011081

DEBUG cell=0 t=11.039→11.081 step=0.0419734 Vm=1.01047e-16
DEBUG cell=0 t=11.039→11.081 step=0.377761 Vm=1.01047e-16
diagonal:  Solving for Vm, Initial residual = 0, Final residual = 0, No Iterations 0
ExecutionTime = 1.24 s  ClockTime = 2 s

Time = 0.011123

DEBUG cell=0 t=11.081→11.123 step=0.0419734 Vm=1.01047e-16
DEBUG cell=0 t=11.081→11.123 step=0.377761 Vm=1.01047e-16
diagonal:  Solving for Vm, Initial residual = 0, Final residual = 0, No Iterations 0
ExecutionTime = 1.24 s  ClockTime = 2 s

Time = 0.0111649

DEBUG cell=0 t=11.123→11.1649 step=0.0419734 Vm=1.01047e-16
DEBUG cell=0 t=11.123→11.1649 step=0.377761 Vm=1.01047e-16
diagonal:  Solving for Vm, Initial residual = 0, Final residual = 0, No Iterations 0
ExecutionTime = 1.24 s  ClockTime = 2 s

Time = 0.0112069

DEBUG cell=0 t=11.1649→11.2069 step=0.0419734 Vm=1.01047e-16
DEBUG cell=0 t=11.1649→11.2069 step=0.377761 Vm=1.01047e-16
diagonal:  Solving for Vm, Initial residual = 0, Final residual = 0, No Iterations 0
ExecutionTime = 1.25 s  ClockTime = 2 s

Time = 0.0112489

DEBUG cell=0 t=11.2069→11.2489 step=0.0419734 Vm=1.01047e-16
DEBUG cell=0 t=11.2069→11.2489 step=0.377761 Vm=1.01047e-16
diagonal:  Solving for Vm, Initial residual = 0, Final residual = 0, No Iterations 0
ExecutionTime = 1.25 s  ClockTime = 2 s

Time = 0.0112909

DEBUG cell=0 t=11.2489→11.2909 step=0.0419734 Vm=1.01047e-16
DEBUG cell=0 t=11.2489→11.2909 step=0.377761 Vm=1.01047e-16
diagonal:  Solving for Vm, Initial residual = 0, Final residual = 0, No Iterations 0
ExecutionTime = 1.25 s  ClockTime = 2 s

Time = 0.0113328

DEBUG cell=0 t=11.2909→11.3328 step=0.0419734 Vm=1.01047e-16
DEBUG cell=0 t=11.2909→11.3328 step=0.377761 Vm=1.01047e-16
diagonal:  Solving for Vm, Initial residual = 0, Final residual = 0, No Iterations 0
ExecutionTime = 1.26 s  ClockTime = 2 s

Time = 0.0113748

DEBUG cell=0 t=11.3328→11.3748 step=0.0419734 Vm=1.01047e-16
DEBUG cell=0 t=11.3328→11.3748 step=0.377761 Vm=1.01047e-16
diagonal:  Solving for Vm, Initial residual = 0, Final residual = 0, No Iterations 0
ExecutionTime = 1.26 s  ClockTime = 2 s

Time = 0.0114168

DEBUG cell=0 t=11.3748→11.4168 step=0.0419734 Vm=1.01047e-16
DEBUG cell=0 t=11.3748→11.4168 step=0.377761 Vm=1.01047e-16
diagonal:  Solving for Vm, Initial residual = 0, Final residual = 0, No Iterations 0
ExecutionTime = 1.26 s  ClockTime = 2 s

Time = 0.0114587

DEBUG cell=0 t=11.4168→11.4587 step=0.0419734 Vm=1.01047e-16
DEBUG cell=0 t=11.4168→11.4587 step=0.377761 Vm=1.01047e-16
diagonal:  Solving for Vm, Initial residual = 0, Final residual = 0, No Iterations 0
ExecutionTime = 1.27 s  ClockTime = 2 s

Time = 0.0115007

DEBUG cell=0 t=11.4587→11.5007 step=0.0419734 Vm=1.01047e-16
DEBUG cell=0 t=11.4587→11.5007 step=0.377761 Vm=1.01047e-16
diagonal:  Solving for Vm, Initial residual = 0, Final residual = 0, No Iterations 0
ExecutionTime = 1.27 s  ClockTime = 2 s

Time = 0.0115427

DEBUG cell=0 t=11.5007→11.5427 step=0.0419734 Vm=1.01047e-16
DEBUG cell=0 t=11.5007→11.5427 step=0.377761 Vm=1.01047e-16
diagonal:  Solving for Vm, Initial residual = 0, Final residual = 0, No Iterations 0
ExecutionTime = 1.29 s  ClockTime = 2 s

Time = 0.0115847

DEBUG cell=0 t=11.5427→11.5847 step=0.0419734 Vm=1.01047e-16
DEBUG cell=0 t=11.5427→11.5847 step=0.377761 Vm=1.01047e-16
diagonal:  Solving for Vm, Initial residual = 0, Final residual = 0, No Iterations 0
ExecutionTime = 1.29 s  ClockTime = 2 s

Time = 0.0116266

DEBUG cell=0 t=11.5847→11.6266 step=0.0419734 Vm=1.01047e-16
DEBUG cell=0 t=11.5847→11.6266 step=0.377761 Vm=1.01047e-16
diagonal:  Solving for Vm, Initial residual = 0, Final residual = 0, No Iterations 0
ExecutionTime = 1.29 s  ClockTime = 2 s

Time = 0.0116686

DEBUG cell=0 t=11.6266→11.6686 step=0.0419734 Vm=1.01047e-16
DEBUG cell=0 t=11.6266→11.6686 step=0.377761 Vm=1.01047e-16
diagonal:  Solving for Vm, Initial residual = 0, Final residual = 0, No Iterations 0
ExecutionTime = 1.3 s  ClockTime = 2 s

Time = 0.0117106

DEBUG cell=0 t=11.6686→11.7106 step=0.0419734 Vm=1.01047e-16
DEBUG cell=0 t=11.6686→11.7106 step=0.377761 Vm=1.01047e-16
diagonal:  Solving for Vm, Initial residual = 0, Final residual = 0, No Iterations 0
ExecutionTime = 1.3 s  ClockTime = 2 s

Time = 0.0117526

DEBUG cell=0 t=11.7106→11.7526 step=0.0419734 Vm=1.01047e-16
DEBUG cell=0 t=11.7106→11.7526 step=0.377761 Vm=1.01047e-16
diagonal:  Solving for Vm, Initial residual = 0, Final residual = 0, No Iterations 0
ExecutionTime = 1.3 s  ClockTime = 2 s

Time = 0.0117945

DEBUG cell=0 t=11.7526→11.7945 step=0.0419734 Vm=1.01047e-16
DEBUG cell=0 t=11.7526→11.7945 step=0.377761 Vm=1.01047e-16
diagonal:  Solving for Vm, Initial residual = 0, Final residual = 0, No Iterations 0
ExecutionTime = 1.31 s  ClockTime = 2 s

Time = 0.0118365

DEBUG cell=0 t=11.7945→11.8365 step=0.0419734 Vm=1.01047e-16
DEBUG cell=0 t=11.7945→11.8365 step=0.377761 Vm=1.01047e-16
diagonal:  Solving for Vm, Initial residual = 0, Final residual = 0, No Iterations 0
ExecutionTime = 1.31 s  ClockTime = 2 s

Time = 0.0118785

DEBUG cell=0 t=11.8365→11.8785 step=0.0419734 Vm=1.01047e-16
DEBUG cell=0 t=11.8365→11.8785 step=0.377761 Vm=1.01047e-16
diagonal:  Solving for Vm, Initial residual = 0, Final residual = 0, No Iterations 0
ExecutionTime = 1.32 s  ClockTime = 2 s

Time = 0.0119205

DEBUG cell=0 t=11.8785→11.9205 step=0.0419734 Vm=1.01047e-16
DEBUG cell=0 t=11.8785→11.9205 step=0.377761 Vm=1.01047e-16
diagonal:  Solving for Vm, Initial residual = 0, Final residual = 0, No Iterations 0
ExecutionTime = 1.32 s  ClockTime = 2 s

Time = 0.0119624

DEBUG cell=0 t=11.9205→11.9624 step=0.0419734 Vm=1.01047e-16
DEBUG cell=0 t=11.9205→11.9624 step=0.377761 Vm=1.01047e-16
diagonal:  Solving for Vm, Initial residual = 0, Final residual = 0, No Iterations 0
ExecutionTime = 1.32 s  ClockTime = 2 s

Time = 0.0120044

DEBUG cell=0 t=11.9624→12.0044 step=0.0419734 Vm=1.01047e-16
DEBUG cell=0 t=11.9624→12.0044 step=0.377761 Vm=1.01047e-16
diagonal:  Solving for Vm, Initial residual = 0, Final residual = 0, No Iterations 0
ExecutionTime = 1.33 s  ClockTime = 2 s

Time = 0.0120464

DEBUG cell=0 t=12.0044→12.0464 step=0.0419734 Vm=1.01047e-16
DEBUG cell=0 t=12.0044→12.0464 step=0.377761 Vm=1.01047e-16
diagonal:  Solving for Vm, Initial residual = 0, Final residual = 0, No Iterations 0
ExecutionTime = 1.33 s  ClockTime = 2 s

Time = 0.0120883

DEBUG cell=0 t=12.0464→12.0883 step=0.0419734 Vm=1.01047e-16
DEBUG cell=0 t=12.0464→12.0883 step=0.377761 Vm=1.01047e-16
diagonal:  Solving for Vm, Initial residual = 0, Final residual = 0, No Iterations 0
ExecutionTime = 1.33 s  ClockTime = 2 s

Time = 0.0121303

DEBUG cell=0 t=12.0883→12.1303 step=0.0419734 Vm=1.01047e-16
DEBUG cell=0 t=12.0883→12.1303 step=0.377761 Vm=1.01047e-16
diagonal:  Solving for Vm, Initial residual = 0, Final residual = 0, No Iterations 0
ExecutionTime = 1.34 s  ClockTime = 2 s

Time = 0.0121723

DEBUG cell=0 t=12.1303→12.1723 step=0.0419734 Vm=1.01047e-16
DEBUG cell=0 t=12.1303→12.1723 step=0.377761 Vm=1.01047e-16
[...]
ExecutionTime = 3.79 s  ClockTime = 5 s

Time = 0.0368107

DEBUG cell=0 t=36.7687→36.8107 step=0.0419734 Vm=0.0199399
DEBUG cell=0 t=36.7687→36.8107 step=0.377761 Vm=0.0199399
diagonal:  Solving for Vm, Initial residual = 0, Final residual = 0, No Iterations 0
ExecutionTime = 3.79 s  ClockTime = 5 s

Time = 0.0368527

DEBUG cell=0 t=36.8107→36.8527 step=0.0419734 Vm=0.0214843
DEBUG cell=0 t=36.8107→36.8527 step=0.377761 Vm=0.0214843
diagonal:  Solving for Vm, Initial residual = 0, Final residual = 0, No Iterations 0
ExecutionTime = 3.79 s  ClockTime = 5 s

Time = 0.0368946

DEBUG cell=0 t=36.8527→36.8946 step=0.0419734 Vm=0.0231553
DEBUG cell=0 t=36.8527→36.8946 step=0.377761 Vm=0.0231553
diagonal:  Solving for Vm, Initial residual = 0, Final residual = 0, No Iterations 0
ExecutionTime = 3.8 s  ClockTime = 5 s

Time = 0.0369366

DEBUG cell=0 t=36.8946→36.9366 step=0.0419734 Vm=0.0249517
DEBUG cell=0 t=36.8946→36.9366 step=0.377761 Vm=0.0249517
diagonal:  Solving for Vm, Initial residual = 0, Final residual = 0, No Iterations 0
ExecutionTime = 3.8 s  ClockTime = 5 s

Time = 0.0369786

DEBUG cell=0 t=36.9366→36.9786 step=0.0419734 Vm=0.0268714
DEBUG cell=0 t=36.9366→36.9786 step=0.377761 Vm=0.0268714
diagonal:  Solving for Vm, Initial residual = 0, Final residual = 0, No Iterations 0
ExecutionTime = 3.81 s  ClockTime = 5 s

Time = 0.0370206

DEBUG cell=0 t=36.9786→37.0206 step=0.0419734 Vm=0.0289108
DEBUG cell=0 t=36.9786→37.0206 step=0.377761 Vm=0.0289108
diagonal:  Solving for Vm, Initial residual = 0, Final residual = 0, No Iterations 0
ExecutionTime = 3.81 s  ClockTime = 5 s

Time = 0.0370625

DEBUG cell=0 t=37.0206→37.0625 step=0.0419734 Vm=0.0310656
DEBUG cell=0 t=37.0206→37.0625 step=0.377761 Vm=0.0310656
diagonal:  Solving for Vm, Initial residual = 0, Final residual = 0, No Iterations 0
ExecutionTime = 3.81 s  ClockTime = 5 s

Time = 0.0371045

DEBUG cell=0 t=37.0625→37.1045 step=0.0419734 Vm=0.033331
DEBUG cell=0 t=37.0625→37.1045 step=0.377761 Vm=0.033331
diagonal:  Solving for Vm, Initial residual = 0, Final residual = 0, No Iterations 0
ExecutionTime = 3.82 s  ClockTime = 5 s

Time = 0.0371465

DEBUG cell=0 t=37.1045→37.1465 step=0.0419734 Vm=0.0357018
DEBUG cell=0 t=37.1045→37.1465 step=0.377761 Vm=0.0357018
diagonal:  Solving for Vm, Initial residual = 0, Final residual = 0, No Iterations 0
ExecutionTime = 3.82 s  ClockTime = 5 s

Time = 0.0371885

DEBUG cell=0 t=37.1465→37.1885 step=0.0419734 Vm=0.0381729
DEBUG cell=0 t=37.1465→37.1885 step=0.377761 Vm=0.0381729
diagonal:  Solving for Vm, Initial residual = 0, Final residual = 0, No Iterations 0
ExecutionTime = 3.83 s  ClockTime = 5 s

Time = 0.0372304

DEBUG cell=0 t=37.1885→37.2304 step=0.0419734 Vm=0.040739
DEBUG cell=0 t=37.1885→37.2304 step=0.377761 Vm=0.040739
diagonal:  Solving for Vm, Initial residual = 0, Final residual = 0, No Iterations 0
ExecutionTime = 3.83 s  ClockTime = 5 s

Time = 0.0372724

DEBUG cell=0 t=37.2304→37.2724 step=0.0419734 Vm=0.0433948
DEBUG cell=0 t=37.2304→37.2724 step=0.377761 Vm=0.0433948
diagonal:  Solving for Vm, Initial residual = 0, Final residual = 0, No Iterations 0
ExecutionTime = 3.83 s  ClockTime = 5 s

Time = 0.0373144

DEBUG cell=0 t=37.2724→37.3144 step=0.0419734 Vm=0.0461353
DEBUG cell=0 t=37.2724→37.3144 step=0.377761 Vm=0.0461353
diagonal:  Solving for Vm, Initial residual = 0, Final residual = 0, No Iterations 0
ExecutionTime = 3.84 s  ClockTime = 5 s

Time = 0.0373564

DEBUG cell=0 t=37.3144→37.3564 step=0.0419734 Vm=0.0489562
DEBUG cell=0 t=37.3144→37.3564 step=0.377761 Vm=0.0489562
diagonal:  Solving for Vm, Initial residual = 0, Final residual = 0, No Iterations 0
ExecutionTime = 3.84 s  ClockTime = 5 s

Time = 0.0373983

DEBUG cell=0 t=37.3564→37.3983 step=0.0419734 Vm=0.0518552
DEBUG cell=0 t=37.3564→37.3983 step=0.377761 Vm=0.0518552
diagonal:  Solving for Vm, Initial residual = 0, Final residual = 0, No Iterations 0
ExecutionTime = 3.84 s  ClockTime = 5 s

Time = 0.0374403

DEBUG cell=0 t=37.3983→37.4403 step=0.0419734 Vm=0.0548368
DEBUG cell=0 t=37.3983→37.4403 step=0.377761 Vm=0.0548368
diagonal:  Solving for Vm, Initial residual = 0, Final residual = 0, No Iterations 0
ExecutionTime = 3.85 s  ClockTime = 5 s

Time = 0.0374823

DEBUG cell=0 t=37.4403→37.4823 step=0.0419734 Vm=0.0579323
DEBUG cell=0 t=37.4403→37.4823 step=0.377761 Vm=0.0579323
diagonal:  Solving for Vm, Initial residual = 0, Final residual = 0, No Iterations 0
ExecutionTime = 3.85 s  ClockTime = 5 s

Time = 0.0375243

DEBUG cell=0 t=37.4823→37.5243 step=0.0419734 Vm=0.0612082
DEBUG cell=0 t=37.4823→37.5243 step=0.377761 Vm=0.0612082
diagonal:  Solving for Vm, Initial residual = 0, Final residual = 0, No Iterations 0
ExecutionTime = 3.85 s  ClockTime = 5 s

Time = 0.0375662

DEBUG cell=0 t=37.5243→37.5662 step=0.0419734 Vm=0.0647587
DEBUG cell=0 t=37.5243→37.5662 step=0.377761 Vm=0.0647587
diagonal:  Solving for Vm, Initial residual = 0, Final residual = 0, No Iterations 0
ExecutionTime = 3.86 s  ClockTime = 5 s

Time = 0.0376082

DEBUG cell=0 t=37.5662→37.6082 step=0.0419734 Vm=0.0686984
DEBUG cell=0 t=37.5662→37.6082 step=0.377761 Vm=0.0686984
diagonal:  Solving for Vm, Initial residual = 0, Final residual = 0, No Iterations 0
ExecutionTime = 3.86 s  ClockTime = 5 s

Time = 0.0376502

DEBUG cell=0 t=37.6082→37.6502 step=0.0419734 Vm=0.0731605
DEBUG cell=0 t=37.6082→37.6502 step=0.377761 Vm=0.0731605
diagonal:  Solving for Vm, Initial residual = 0, Final residual = 0, No Iterations 0
ExecutionTime = 3.86 s  ClockTime = 5 s

Time = 0.0376921

DEBUG cell=0 t=37.6502→37.6921 step=0.0419734 Vm=0.0782934
DEBUG cell=0 t=37.6502→37.6921 step=0.377761 Vm=0.0782934
diagonal:  Solving for Vm, Initial residual = 0, Final residual = 0, No Iterations 0
ExecutionTime = 3.87 s  ClockTime = 5 s

Time = 0.0377341

DEBUG cell=0 t=37.6921→37.7341 step=0.0419734 Vm=0.0842503
DEBUG cell=0 t=37.6921→37.7341 step=0.377761 Vm=0.0842503
diagonal:  Solving for Vm, Initial residual = 0, Final residual = 0, No Iterations 0
ExecutionTime = 3.87 s  ClockTime = 5 s

Time = 0.0377761

DEBUG cell=0 t=37.7341→37.7761 step=0.0419734 Vm=0.0911732
DEBUG cell=0 t=37.7341→37.7761 step=0.377761 Vm=0.0911732
diagonal:  Solving for Vm, Initial residual = 0, Final residual = 0, No Iterations 0
ExecutionTime = 3.87 s  ClockTime = 5 s

Time = 0.0378181

DEBUG cell=0 t=37.7761→37.8181 step=0.0419734 Vm=0.09917
DEBUG cell=0 t=37.7761→37.8181 step=0.377761 Vm=0.09917
diagonal:  Solving for Vm, Initial residual = 0, Final residual = 0, No Iterations 0
ExecutionTime = 3.88 s  ClockTime = 5 s

Time = 0.03786

DEBUG cell=0 t=37.8181→37.86 step=0.0419734 Vm=0.108292
DEBUG cell=0 t=37.8181→37.86 step=0.377761 Vm=0.108292
diagonal:  Solving for Vm, Initial residual = 0, Final residual = 0, No Iterations 0
ExecutionTime = 3.88 s  ClockTime = 5 s

Time = 0.037902

DEBUG cell=0 t=37.86→37.902 step=0.0419734 Vm=0.118519
DEBUG cell=0 t=37.86→37.902 step=0.377761 Vm=0.118519
diagonal:  Solving for Vm, Initial residual = 0, Final residual = 0, No Iterations 0
ExecutionTime = 3.89 s  ClockTime = 5 s

Time = 0.037944

DEBUG cell=0 t=37.902→37.944 step=0.0419734 Vm=0.129752
DEBUG cell=0 t=37.902→37.944 step=0.377761 Vm=0.129752
diagonal:  Solving for Vm, Initial residual = 0, Final residual = 0, No Iterations 0
ExecutionTime = 3.9 s  ClockTime = 5 s

Time = 0.037986

DEBUG cell=0 t=37.944→37.986 step=0.0419734 Vm=0.141838
DEBUG cell=0 t=37.944→37.986 step=0.377761 Vm=0.141838
diagonal:  Solving for Vm, Initial residual = 0, Final residual = 0, No Iterations 0
ExecutionTime = 3.9 s  ClockTime = 5 s

Time = 0.0380279

DEBUG cell=0 t=37.986→38.0279 step=0.0419734 Vm=0.154564
DEBUG cell=0 t=37.986→38.0279 step=0.377761 Vm=0.154564
diagonal:  Solving for Vm, Initial residual = 0, Final residual = 0, No Iterations 0
ExecutionTime = 3.91 s  ClockTime = 5 s

Time = 0.0380699

DEBUG cell=0 t=38.0279→38.0699 step=0.0419734 Vm=0.167814
DEBUG cell=0 t=38.0279→38.0699 step=0.377761 Vm=0.167814
diagonal:  Solving for Vm, Initial residual = 0, Final residual = 0, No Iterations 0
ExecutionTime = 3.91 s  ClockTime = 5 s

Time = 0.0381119

DEBUG cell=0 t=38.0699→38.1119 step=0.0419734 Vm=0.181435
DEBUG cell=0 t=38.0699→38.1119 step=0.377761 Vm=0.181435
diagonal:  Solving for Vm, Initial residual = 0, Final residual = 0, No Iterations 0
ExecutionTime = 3.91 s  ClockTime = 5 s

Time = 0.0381539

DEBUG cell=0 t=38.1119→38.1539 step=0.0419734 Vm=0.195276
DEBUG cell=0 t=38.1119→38.1539 step=0.377761 Vm=0.195276
diagonal:  Solving for Vm, Initial residual = 0, Final residual = 0, No Iterations 0
ExecutionTime = 3.92 s  ClockTime = 5 s

Time = 0.0381958

DEBUG cell=0 t=38.1539→38.1958 step=0.0419734 Vm=0.209218
DEBUG cell=0 t=38.1539→38.1958 step=0.377761 Vm=0.209218
diagonal:  Solving for Vm, Initial residual = 0, Final residual = 0, No Iterations 0
ExecutionTime = 3.92 s  ClockTime = 5 s

Time = 0.0382378

DEBUG cell=0 t=38.1958→38.2378 step=0.0419734 Vm=0.223172
DEBUG cell=0 t=38.1958→38.2378 step=0.377761 Vm=0.223172
diagonal:  Solving for Vm, Initial residual = 0, Final residual = 0, No Iterations 0
ExecutionTime = 3.92 s  ClockTime = 5 s

Time = 0.0382798

DEBUG cell=0 t=38.2378→38.2798 step=0.0419734 Vm=0.237075
DEBUG cell=0 t=38.2378→38.2798 step=0.377761 Vm=0.237075
diagonal:  Solving for Vm, Initial residual = 0, Final residual = 0, No Iterations 0
ExecutionTime = 3.93 s  ClockTime = 5 s

Time = 0.0383217

DEBUG cell=0 t=38.2798→38.3217 step=0.0419734 Vm=0.250881
DEBUG cell=0 t=38.2798→38.3217 step=0.377761 Vm=0.250881
diagonal:  Solving for Vm, Initial residual = 0, Final residual = 0, No Iterations 0
ExecutionTime = 3.93 s  ClockTime = 5 s

Time = 0.0383637

DEBUG cell=0 t=38.3217→38.3637 step=0.0419734 Vm=0.26456
DEBUG cell=0 t=38.3217→38.3637 step=0.377761 Vm=0.26456
diagonal:  Solving for Vm, Initial residual = 0, Final residual = 0, No Iterations 0
ExecutionTime = 3.94 s  ClockTime = 5 s

Time = 0.0384057

DEBUG cell=0 t=38.3637→38.4057 step=0.0419734 Vm=0.278101
DEBUG cell=0 t=38.3637→38.4057 step=0.377761 Vm=0.278101
diagonal:  Solving for Vm, Initial residual = 0, Final residual = 0, No Iterations 0
ExecutionTime = 3.94 s  ClockTime = 5 s

Time = 0.0384477

DEBUG cell=0 t=38.4057→38.4477 step=0.0419734 Vm=0.291534
DEBUG cell=0 t=38.4057→38.4477 step=0.377761 Vm=0.291534
diagonal:  Solving for Vm, Initial residual = 0, Final residual = 0, No Iterations 0
ExecutionTime = 3.94 s  ClockTime = 5 s

Time = 0.0384896

DEBUG cell=0 t=38.4477→38.4896 step=0.0419734 Vm=0.3052
DEBUG cell=0 t=38.4477→38.4896 step=0.377761 Vm=0.3052
diagonal:  Solving for Vm, Initial residual = 0, Final residual = 0, No Iterations 0
ExecutionTime = 3.95 s  ClockTime = 5 s

Time = 0.0385316

DEBUG cell=0 t=38.4896→38.5316 step=0.0419734 Vm=0.321292
DEBUG cell=0 t=38.4896→38.5316 step=0.377761 Vm=0.321292
diagonal:  Solving for Vm, Initial residual = 0, Final residual = 0, No Iterations 0
ExecutionTime = 3.95 s  ClockTime = 5 s

Time = 0.0385736

DEBUG cell=0 t=38.5316→38.5736 step=0.0419734 Vm=0.343935
DEBUG cell=0 t=38.5316→38.5736 step=0.377761 Vm=0.343935
diagonal:  Solving for Vm, Initial residual = 0, Final residual = 0, No Iterations 0
ExecutionTime = 3.95 s  ClockTime = 5 s

Time = 0.0386156

DEBUG cell=0 t=38.5736→38.6156 step=0.0419734 Vm=0.375792
DEBUG cell=0 t=38.5736→38.6156 step=0.377761 Vm=0.375792
diagonal:  Solving for Vm, Initial residual = 0, Final residual = 0, No Iterations 0
ExecutionTime = 3.96 s  ClockTime = 5 s

Time = 0.0386575

DEBUG cell=0 t=38.6156→38.6575 step=0.0419734 Vm=0.41915
DEBUG cell=0 t=38.6156→38.6575 step=0.377761 Vm=0.41915
diagonal:  Solving for Vm, Initial residual = 0, Final residual = 0, No Iterations 0
ExecutionTime = 3.96 s  ClockTime = 5 s

Time = 0.0386995

DEBUG cell=0 t=38.6575→38.6995 step=0.0419734 Vm=0.476139
DEBUG cell=0 t=38.6575→38.6995 step=0.377761 Vm=0.476139
diagonal:  Solving for Vm, Initial residual = 0, Final residual = 0, No Iterations 0
ExecutionTime = 3.97 s  ClockTime = 5 s

Time = 0.0387415

DEBUG cell=0 t=38.6995→38.7415 step=0.0419734 Vm=0.5483
DEBUG cell=0 t=38.6995→38.7415 step=0.377761 Vm=0.5483
diagonal:  Solving for Vm, Initial residual = 0, Final residual = 0, No Iterations 0
ExecutionTime = 3.97 s  ClockTime = 5 s

Time = 0.0387835

DEBUG cell=0 t=38.7415→38.7835 step=0.0419734 Vm=0.635844
DEBUG cell=0 t=38.7415→38.7835 step=0.377761 Vm=0.635844
diagonal:  Solving for Vm, Initial residual = 0, Final residual = 0, No Iterations 0
ExecutionTime = 3.97 s  ClockTime = 5 s

Time = 0.0388254

DEBUG cell=0 t=38.7835→38.8254 step=0.0419734 Vm=0.736889
DEBUG cell=0 t=38.7835→38.8254 step=0.377761 Vm=0.736889
diagonal:  Solving for Vm, Initial residual = 0, Final residual = 0, No Iterations 0
ExecutionTime = 3.98 s  ClockTime = 5 s

Time = 0.0388674

DEBUG cell=0 t=38.8254→38.8674 step=0.0419734 Vm=0.847037
DEBUG cell=0 t=38.8254→38.8674 step=0.377761 Vm=0.847037
diagonal:  Solving for Vm, Initial residual = 0, Final residual = 0, No Iterations 0
ExecutionTime = 3.98 s  ClockTime = 5 s

Time = 0.0389094

DEBUG cell=0 t=38.8674→38.9094 step=0.0419734 Vm=0.959681
DEBUG cell=0 t=38.8674→38.9094 step=0.377761 Vm=0.959681
diagonal:  Solving for Vm, Initial residual = 0, Final residual = 0, No Iterations 0
ExecutionTime = 3.98 s  ClockTime = 5 s

Time = 0.0389513

DEBUG cell=0 t=38.9094→38.9513 step=0.0419734 Vm=1.06721
DEBUG cell=0 t=38.9094→38.9513 step=0.377761 Vm=1.06721
diagonal:  Solving for Vm, Initial residual = 0, Final residual = 0, No Iterations 0
ExecutionTime = 3.99 s  ClockTime = 5 s

Time = 0.0389933

DEBUG cell=0 t=38.9513→38.9933 step=0.0419734 Vm=1.16285
DEBUG cell=0 t=38.9513→38.9933 step=0.377761 Vm=1.16285
diagonal:  Solving for Vm, Initial residual = 0, Final residual = 0, No Iterations 0
ExecutionTime = 3.99 s  ClockTime = 5 s

Time = 0.0390353

DEBUG cell=0 t=38.9933→39.0353 step=0.0419734 Vm=1.24232
DEBUG cell=0 t=38.9933→39.0353 step=0.377761 Vm=1.24232
diagonal:  Solving for Vm, Initial residual = 0, Final residual = 0, No Iterations 0
ExecutionTime = 3.99 s  ClockTime = 5 s

Time = 0.0390773

DEBUG cell=0 t=39.0353→39.0773 step=0.0419734 Vm=1.3045
DEBUG cell=0 t=39.0353→39.0773 step=0.377761 Vm=1.3045
diagonal:  Solving for Vm, Initial residual = 0, Final residual = 0, No Iterations 0
ExecutionTime = 4 s  ClockTime = 5 s

Time = 0.0391192

DEBUG cell=0 t=39.0773→39.1192 step=0.0419734 Vm=1.35091
DEBUG cell=0 t=39.0773→39.1192 step=0.377761 Vm=1.35091
diagonal:  Solving for Vm, Initial residual = 0, Final residual = 0, No Iterations 0
ExecutionTime = 4 s  ClockTime = 5 s

Time = 0.0391612

DEBUG cell=0 t=39.1192→39.1612 step=0.0419734 Vm=1.38443
DEBUG cell=0 t=39.1192→39.1612 step=0.377761 Vm=1.38443
diagonal:  Solving for Vm, Initial residual = 0, Final residual = 0, No Iterations 0
ExecutionTime = 4 s  ClockTime = 5 s

Time = 0.0392032

DEBUG cell=0 t=39.1612→39.2032 step=0.0419734 Vm=1.40813
DEBUG cell=0 t=39.1612→39.2032 step=0.377761 Vm=1.40813
diagonal:  Solving for Vm, Initial residual = 0, Final residual = 0, No Iterations 0
ExecutionTime = 4.02 s  ClockTime = 5 s

Time = 0.0392452

DEBUG cell=0 t=39.2032→39.2452 step=0.0419734 Vm=1.42466
DEBUG cell=0 t=39.2032→39.2452 step=0.377761 Vm=1.42466
diagonal:  Solving for Vm, Initial residual = 0, Final residual = 0, No Iterations 0
ExecutionTime = 4.02 s  ClockTime = 5 s

Time = 0.0392871

DEBUG cell=0 t=39.2452→39.2871 step=0.0419734 Vm=1.43604
DEBUG cell=0 t=39.2452→39.2871 step=0.377761 Vm=1.43604
diagonal:  Solving for Vm, Initial residual = 0, Final residual = 0, No Iterations 0
ExecutionTime = 4.03 s  ClockTime = 5 s

Time = 0.0393291

DEBUG cell=0 t=39.2871→39.3291 step=0.0419734 Vm=1.44374
DEBUG cell=0 t=39.2871→39.3291 step=0.377761 Vm=1.44374
diagonal:  Solving for Vm, Initial residual = 0, Final residual = 0, No Iterations 0
ExecutionTime = 4.03 s  ClockTime = 5 s

Time = 0.0393711

DEBUG cell=0 t=39.3291→39.3711 step=0.0419734 Vm=1.44882
DEBUG cell=0 t=39.3291→39.3711 step=0.377761 Vm=1.44882
diagonal:  Solving for Vm, Initial residual = 0, Final residual = 0, No Iterations 0
ExecutionTime = 4.03 s  ClockTime = 5 s

Time = 0.0394131

DEBUG cell=0 t=39.3711→39.4131 step=0.0419734 Vm=1.45203
DEBUG cell=0 t=39.3711→39.4131 step=0.377761 Vm=1.45203
diagonal:  Solving for Vm, Initial residual = 0, Final residual = 0, No Iterations 0
ExecutionTime = 4.04 s  ClockTime = 5 s

Time = 0.039455

DEBUG cell=0 t=39.4131→39.455 step=0.0419734 Vm=1.45388
DEBUG cell=0 t=39.4131→39.455 step=0.377761 Vm=1.45388
diagonal:  Solving for Vm, Initial residual = 0, Final residual = 0, No Iterations 0
ExecutionTime = 4.04 s  ClockTime = 5 s

Time = 0.039497

DEBUG cell=0 t=39.455→39.497 step=0.0419734 Vm=1.45476
DEBUG cell=0 t=39.455→39.497 step=0.377761 Vm=1.45476
diagonal:  Solving for Vm, Initial residual = 0, Final residual = 0, No Iterations 0
ExecutionTime = 4.04 s  ClockTime = 5 s

Time = 0.039539

DEBUG cell=0 t=39.497→39.539 step=0.0419734 Vm=1.45491
DEBUG cell=0 t=39.497→39.539 step=0.377761 Vm=1.45491
diagonal:  Solving for Vm, Initial residual = 0, Final residual = 0, No Iterations 0
ExecutionTime = 4.05 s  ClockTime = 5 s

Time = 0.0395809

DEBUG cell=0 t=39.539→39.5809 step=0.0419734 Vm=1.45451
DEBUG cell=0 t=39.539→39.5809 step=0.377761 Vm=1.45451
diagonal:  Solving for Vm, Initial residual = 0, Final residual = 0, No Iterations 0
ExecutionTime = 4.05 s  ClockTime = 5 s

Time = 0.0396229

DEBUG cell=0 t=39.5809→39.6229 step=0.0419734 Vm=1.45371
DEBUG cell=0 t=39.5809→39.6229 step=0.377761 Vm=1.45371
diagonal:  Solving for Vm, Initial residual = 0, Final residual = 0, No Iterations 0
ExecutionTime = 4.05 s  ClockTime = 5 s

Time = 0.0396649

DEBUG cell=0 t=39.6229→39.6649 step=0.0419734 Vm=1.4526
DEBUG cell=0 t=39.6229→39.6649 step=0.377761 Vm=1.4526
diagonal:  Solving for Vm, Initial residual = 0, Final residual = 0, No Iterations 0
ExecutionTime = 4.06 s  ClockTime = 5 s

Time = 0.0397069

DEBUG cell=0 t=39.6649→39.7069 step=0.0419734 Vm=1.45125
DEBUG cell=0 t=39.6649→39.7069 step=0.377761 Vm=1.45125
diagonal:  Solving for Vm, Initial residual = 0, Final residual = 0, No Iterations 0
ExecutionTime = 4.06 s  ClockTime = 5 s

Time = 0.0397488

DEBUG cell=0 t=39.7069→39.7488 step=0.0419734 Vm=1.4497
DEBUG cell=0 t=39.7069→39.7488 step=0.377761 Vm=1.4497
diagonal:  Solving for Vm, Initial residual = 0, Final residual = 0, No Iterations 0
ExecutionTime = 4.07 s  ClockTime = 5 s

Time = 0.0397908

DEBUG cell=0 t=39.7488→39.7908 step=0.0419734 Vm=1.448
DEBUG cell=0 t=39.7488→39.7908 step=0.377761 Vm=1.448
diagonal:  Solving for Vm, Initial residual = 0, Final residual = 0, No Iterations 0
ExecutionTime = 4.07 s  ClockTime = 5 s

Time = 0.0398328

DEBUG cell=0 t=39.7908→39.8328 step=0.0419734 Vm=1.44618
DEBUG cell=0 t=39.7908→39.8328 step=0.377761 Vm=1.44618
diagonal:  Solving for Vm, Initial residual = 0, Final residual = 0, No Iterations 0
ExecutionTime = 4.08 s  ClockTime = 5 s

Time = 0.0398748

DEBUG cell=0 t=39.8328→39.8748 step=0.0419734 Vm=1.44425
DEBUG cell=0 t=39.8328→39.8748 step=0.377761 Vm=1.44425
diagonal:  Solving for Vm, Initial residual = 0, Final residual = 0, No Iterations 0
ExecutionTime = 4.08 s  ClockTime = 5 s

Time = 0.0399167

DEBUG cell=0 t=39.8748→39.9167 step=0.0419734 Vm=1.44223
DEBUG cell=0 t=39.8748→39.9167 step=0.377761 Vm=1.44223
diagonal:  Solving for Vm, Initial residual = 0, Final residual = 0, No Iterations 0
ExecutionTime = 4.08 s  ClockTime = 5 s

Time = 0.0399587

DEBUG cell=0 t=39.9167→39.9587 step=0.0419734 Vm=1.44014
DEBUG cell=0 t=39.9167→39.9587 step=0.377761 Vm=1.44014
diagonal:  Solving for Vm, Initial residual = 0, Final residual = 0, No Iterations 0
ExecutionTime = 4.09 s  ClockTime = 5 s

Time = 0.0400007

DEBUG cell=0 t=39.9587→40.0007 step=0.0419734 Vm=1.43799
DEBUG cell=0 t=39.9587→40.0007 step=0.377761 Vm=1.43799
diagonal:  Solving for Vm, Initial residual = 0, Final residual = 0, No Iterations 0
ExecutionTime = 4.11 s  ClockTime = 5 s


End

Finalising parallel run
