/*---------------------------------------------------------------------------*\
| =========                 |                                                 |
| \\      /  F ield         | OpenFOAM: The Open Source CFD Toolbox           |
|  \\    /   O peration     | Version:  2412                                  |
|   \\  /    A nd           | Website:  www.openfoam.com                      |
|    \\/     M anipulation  |                                                 |
\*---------------------------------------------------------------------------*/
Build  : _8dbc61e11c-20241220 OPENFOAM=2412 version=v2412
Arch   : "LSB;label=32;scalar=64"
Exec   : cardiacFoam -parallel
Date   : Mar 19 2026
Time   : 12:42:40
Host   : macbook
PID    : 77695
I/O    : uncollated
Case   : /Users/simaocastro/cardiacFoamv2/tutorials/manufacturedFDA
nProcs : 6
Hosts  :
(
    (macbook 6)
)
Pstream initialized with:
    floatTransfer      : false
    maxCommsSize       : 0
    nProcsSimpleSum    : 0
    nonBlockingExchange: 0 (tuning: 0)
    exchange algorithm : 0
    commsType          : nonBlocking
    polling iterations : 0
trapFpe: Floating point exception trapping enabled (FOAM_SIGFPE).
fileModificationChecking : Monitoring run-time modified files using timeStampMaster (fileModificationSkew 5, maxFileModificationPolls 20)
allowSystemOperations : Allowing user-supplied system call operations

// * * * * * * * * * * * * * * * * * * * * * * * * * * * * * * * * * * * * * //
Create time

Selecting physicsModel electroModel

Selecting electroModel monoDomainElectro

conductivity not found on disk, using value from "/Users/simaocastro/cardiacFoamv2/tutorials/manufacturedFDA/processor0/../constant/electroProperties/monoDomainElectroCoeffs"

conductivity tensor (cell 0): (0.111453 0 0 0 0.121585 0 0 0 0.0303964)
--> FOAM Warning : 
    From Foam::electroModels::monoDomainElectro::monoDomainElectro(const word &, Time &, const word &)
    in file monoDomainElectro/monoDomainElectro.C at line 321
    Stimulus box index 0 does not contain any mesh cells.
Surface-to-volume ratio chi = chi [0 -1 0 0 0 0 0] 3
Membrane capacitance Cm = Cm [-1 -4 4 0 0 2 0] 2

Using pre/post processor tmanufacturedFDA for ionic model tmanufacturedFDA.
Running preProcess with fields 3(u1 u2 u3).
Time = 3.50471e-05

Solving the mono-domain equation for Vm using an implicit approach
DEBUG cell=0 t=0→3.50471e-05 step=3.50471e-05 V=-0.999759 u1=0.00101246 u2=0.999614 u3=0 Iion=0
Selecting ODE solver RKF45
DEBUG cell=0 t=0→3.50471e-05 step=0.000315424 V=-0.999759 u1=0.00103001 u2=0.999579 u3=0 Iion=2.9659

PIMPLE: no residual control data found. Calculations will employ 2 corrector loops

PIMPLE: iteration 1
DICPCG:  Solving for Vm, Initial residual = 8.76299e-06, Final residual = 5.39746e-17, No Iterations 5
PIMPLE: iteration 2
DICPCG:  Solving for Vm, Initial residual = 1.00055e-16, Final residual = 1.00055e-16, No Iterations 0
ExecutionTime = 0 s  ClockTime = 0 s

Time = 7.00942e-05

DEBUG cell=0 t=3.50471e-05→7.00942e-05 step=3.50471e-05 V=-0.999777 u1=0.00103001 u2=0.999579 u3=0 Iion=2.9659
DEBUG cell=0 t=3.50471e-05→7.00942e-05 step=0.000315424 V=-0.999777 u1=0.00104757 u2=0.999544 u3=0 Iion=2.96592
PIMPLE: iteration 1
DICPCG:  Solving for Vm, Initial residual = 8.76274e-06, Final residual = 8.02219e-16, No Iterations 4
PIMPLE: iteration 2
DICPCG:  Solving for Vm, Initial residual = 8.01452e-16, Final residual = 8.01452e-16, No Iterations 0
ExecutionTime = 0.01 s  ClockTime = 0 s

Time = 0.000105141

DEBUG cell=0 t=7.00942e-05→0.000105141 step=3.50471e-05 V=-0.999794 u1=0.00104757 u2=0.999544 u3=0 Iion=2.96592
DEBUG cell=0 t=7.00942e-05→0.000105141 step=0.000315424 V=-0.999794 u1=0.00106512 u2=0.999509 u3=0 Iion=2.96593
PIMPLE: iteration 1
DICPCG:  Solving for Vm, Initial residual = 8.76245e-06, Final residual = 8.02192e-16, No Iterations 4
PIMPLE: iteration 2
DICPCG:  Solving for Vm, Initial residual = 8.02402e-16, Final residual = 8.02402e-16, No Iterations 0
ExecutionTime = 0.01 s  ClockTime = 0 s

Time = 0.000140188

DEBUG cell=0 t=0.000105141→0.000140188 step=3.50471e-05 V=-0.999812 u1=0.00106512 u2=0.999509 u3=0 Iion=2.96593
DEBUG cell=0 t=0.000105141→0.000140188 step=0.000315424 V=-0.999812 u1=0.00108268 u2=0.999474 u3=0 Iion=2.96595
PIMPLE: iteration 1
DICPCG:  Solving for Vm, Initial residual = 8.76215e-06, Final residual = 8.02165e-16, No Iterations 4
PIMPLE: iteration 2
DICPCG:  Solving for Vm, Initial residual = 8.02284e-16, Final residual = 8.02284e-16, No Iterations 0
ExecutionTime = 0.01 s  ClockTime = 0 s

Time = 0.000175235

DEBUG cell=0 t=0.000140188→0.000175235 step=3.50471e-05 V=-0.999829 u1=0.00108268 u2=0.999474 u3=0 Iion=2.96595
DEBUG cell=0 t=0.000140188→0.000175235 step=0.000315424 V=-0.999829 u1=0.00110023 u2=0.999439 u3=0 Iion=2.96597
PIMPLE: iteration 1
DICPCG:  Solving for Vm, Initial residual = 8.76184e-06, Final residual = 8.02137e-16, No Iterations 4
PIMPLE: iteration 2
DICPCG:  Solving for Vm, Initial residual = 8.01403e-16, Final residual = 8.01403e-16, No Iterations 0
ExecutionTime = 0.01 s  ClockTime = 0 s

Time = 0.000210283

DEBUG cell=0 t=0.000175235→0.000210283 step=3.50471e-05 V=-0.999847 u1=0.00110023 u2=0.999439 u3=0 Iion=2.96597
DEBUG cell=0 t=0.000175235→0.000210283 step=0.000315424 V=-0.999847 u1=0.00111779 u2=0.999404 u3=0 Iion=2.96598
PIMPLE: iteration 1
DICPCG:  Solving for Vm, Initial residual = 8.76154e-06, Final residual = 8.02109e-16, No Iterations 4
PIMPLE: iteration 2
DICPCG:  Solving for Vm, Initial residual = 8.02338e-16, Final residual = 8.02338e-16, No Iterations 0
ExecutionTime = 0.02 s  ClockTime = 0 s

Time = 0.00024533

DEBUG cell=0 t=0.000210283→0.00024533 step=3.50471e-05 V=-0.999864 u1=0.00111779 u2=0.999404 u3=0 Iion=2.96598
DEBUG cell=0 t=0.000210283→0.00024533 step=0.000315424 V=-0.999864 u1=0.00113535 u2=0.999369 u3=0 Iion=2.966
PIMPLE: iteration 1
DICPCG:  Solving for Vm, Initial residual = 8.76123e-06, Final residual = 8.02081e-16, No Iterations 4
PIMPLE: iteration 2
DICPCG:  Solving for Vm, Initial residual = 8.01998e-16, Final residual = 8.01998e-16, No Iterations 0
ExecutionTime = 0.02 s  ClockTime = 0 s

Time = 0.000280377

DEBUG cell=0 t=0.00024533→0.000280377 step=3.50471e-05 V=-0.999882 u1=0.00113535 u2=0.999369 u3=0 Iion=2.966
DEBUG cell=0 t=0.00024533→0.000280377 step=0.000315424 V=-0.999882 u1=0.0011529 u2=0.999334 u3=0 Iion=2.96602
PIMPLE: iteration 1
DICPCG:  Solving for Vm, Initial residual = 8.76092e-06, Final residual = 8.02053e-16, No Iterations 4
PIMPLE: iteration 2
DICPCG:  Solving for Vm, Initial residual = 8.02095e-16, Final residual = 8.02095e-16, No Iterations 0
ExecutionTime = 0.02 s  ClockTime = 0 s

Time = 0.000315424

DEBUG cell=0 t=0.000280377→0.000315424 step=3.50471e-05 V=-0.999899 u1=0.0011529 u2=0.999334 u3=0 Iion=2.96602
DEBUG cell=0 t=0.000280377→0.000315424 step=0.000315424 V=-0.999899 u1=0.00117046 u2=0.999299 u3=0 Iion=2.96603
PIMPLE: iteration 1
DICPCG:  Solving for Vm, Initial residual = 8.76062e-06, Final residual = 8.02024e-16, No Iterations 4
PIMPLE: iteration 2
DICPCG:  Solving for Vm, Initial residual = 8.02862e-16, Final residual = 8.02862e-16, No Iterations 0
ExecutionTime = 0.02 s  ClockTime = 0 s

Time = 0.000350471

DEBUG cell=0 t=0.000315424→0.000350471 step=3.50471e-05 V=-0.999917 u1=0.00117046 u2=0.999299 u3=0 Iion=2.96603
DEBUG cell=0 t=0.000315424→0.000350471 step=0.000315424 V=-0.999917 u1=0.00118802 u2=0.999264 u3=0 Iion=2.96605
PIMPLE: iteration 1
DICPCG:  Solving for Vm, Initial residual = 8.76031e-06, Final residual = 8.01996e-16, No Iterations 4
PIMPLE: iteration 2
DICPCG:  Solving for Vm, Initial residual = 8.02335e-16, Final residual = 8.02335e-16, No Iterations 0
ExecutionTime = 0.03 s  ClockTime = 0 s

Time = 0.000385518

DEBUG cell=0 t=0.000350471→0.000385518 step=3.50471e-05 V=-0.999934 u1=0.00118802 u2=0.999264 u3=0 Iion=2.96605
DEBUG cell=0 t=0.000350471→0.000385518 step=0.000315424 V=-0.999934 u1=0.00120557 u2=0.999229 u3=0 Iion=2.96607
PIMPLE: iteration 1
DICPCG:  Solving for Vm, Initial residual = 8.76e-06, Final residual = 8.01968e-16, No Iterations 4
PIMPLE: iteration 2
DICPCG:  Solving for Vm, Initial residual = 8.01249e-16, Final residual = 8.01249e-16, No Iterations 0
ExecutionTime = 0.03 s  ClockTime = 0 s

Time = 0.000420565

DEBUG cell=0 t=0.000385518→0.000420565 step=3.50471e-05 V=-0.999952 u1=0.00120557 u2=0.999229 u3=0 Iion=2.96607
DEBUG cell=0 t=0.000385518→0.000420565 step=0.000315424 V=-0.999952 u1=0.00122313 u2=0.999194 u3=0 Iion=2.96609
PIMPLE: iteration 1
DICPCG:  Solving for Vm, Initial residual = 8.75969e-06, Final residual = 8.0194e-16, No Iterations 4
PIMPLE: iteration 2
DICPCG:  Solving for Vm, Initial residual = 8.01648e-16, Final residual = 8.01648e-16, No Iterations 0
ExecutionTime = 0.03 s  ClockTime = 0 s

Time = 0.000455612

DEBUG cell=0 t=0.000420565→0.000455612 step=3.50471e-05 V=-0.999969 u1=0.00122313 u2=0.999194 u3=0 Iion=2.96609
DEBUG cell=0 t=0.000420565→0.000455612 step=0.000315424 V=-0.999969 u1=0.00124069 u2=0.999159 u3=0 Iion=2.9661
PIMPLE: iteration 1
DICPCG:  Solving for Vm, Initial residual = 8.75939e-06, Final residual = 8.01912e-16, No Iterations 4
PIMPLE: iteration 2
DICPCG:  Solving for Vm, Initial residual = 8.03259e-16, Final residual = 8.03259e-16, No Iterations 0
ExecutionTime = 0.03 s  ClockTime = 0 s

Time = 0.000490659

DEBUG cell=0 t=0.000455612→0.000490659 step=3.50471e-05 V=-0.999987 u1=0.00124069 u2=0.999159 u3=0 Iion=2.9661
DEBUG cell=0 t=0.000455612→0.000490659 step=0.000315424 V=-0.999987 u1=0.00125825 u2=0.999124 u3=0 Iion=2.96612
PIMPLE: iteration 1
DICPCG:  Solving for Vm, Initial residual = 8.75908e-06, Final residual = 8.01884e-16, No Iterations 4
PIMPLE: iteration 2
DICPCG:  Solving for Vm, Initial residual = 8.0072e-16, Final residual = 8.0072e-16, No Iterations 0
ExecutionTime = 0.03 s  ClockTime = 0 s

Time = 0.000525706

DEBUG cell=0 t=0.000490659→0.000525706 step=3.50471e-05 V=-1 u1=0.00125825 u2=0.999124 u3=0 Iion=2.96612
DEBUG cell=0 t=0.000490659→0.000525706 step=0.000315424 V=-1 u1=0.00127581 u2=0.999089 u3=0 Iion=2.96614
PIMPLE: iteration 1
DICPCG:  Solving for Vm, Initial residual = 8.75877e-06, Final residual = 8.01856e-16, No Iterations 4
PIMPLE: iteration 2
DICPCG:  Solving for Vm, Initial residual = 8.02944e-16, Final residual = 8.02944e-16, No Iterations 0
ExecutionTime = 0.04 s  ClockTime = 0 s

Time = 0.000560754

DEBUG cell=0 t=0.000525706→0.000560754 step=3.50471e-05 V=-1.00002 u1=0.00127581 u2=0.999089 u3=0 Iion=2.96614
DEBUG cell=0 t=0.000525706→0.000560754 step=0.000315424 V=-1.00002 u1=0.00129337 u2=0.999054 u3=0 Iion=2.96615
PIMPLE: iteration 1
DICPCG:  Solving for Vm, Initial residual = 8.75847e-06, Final residual = 8.01828e-16, No Iterations 4
PIMPLE: iteration 2
DICPCG:  Solving for Vm, Initial residual = 8.00577e-16, Final residual = 8.00577e-16, No Iterations 0
ExecutionTime = 0.04 s  ClockTime = 0 s

Time = 0.000595801

DEBUG cell=0 t=0.000560754→0.000595801 step=3.50471e-05 V=-1.00004 u1=0.00129337 u2=0.999054 u3=0 Iion=2.96615
DEBUG cell=0 t=0.000560754→0.000595801 step=0.000315424 V=-1.00004 u1=0.00131093 u2=0.999019 u3=0 Iion=2.96617
PIMPLE: iteration 1
DICPCG:  Solving for Vm, Initial residual = 8.75816e-06, Final residual = 8.018e-16, No Iterations 4
PIMPLE: iteration 2
DICPCG:  Solving for Vm, Initial residual = 8.02819e-16, Final residual = 8.02819e-16, No Iterations 0
ExecutionTime = 0.04 s  ClockTime = 0 s

Time = 0.000630848

DEBUG cell=0 t=0.000595801→0.000630848 step=3.50471e-05 V=-1.00006 u1=0.00131093 u2=0.999019 u3=0 Iion=2.96617
DEBUG cell=0 t=0.000595801→0.000630848 step=0.000315424 V=-1.00006 u1=0.00132849 u2=0.998984 u3=0 Iion=2.96619
PIMPLE: iteration 1
DICPCG:  Solving for Vm, Initial residual = 8.75785e-06, Final residual = 8.01772e-16, No Iterations 4
PIMPLE: iteration 2
DICPCG:  Solving for Vm, Initial residual = 8.00741e-16, Final residual = 8.00741e-16, No Iterations 0
ExecutionTime = 0.04 s  ClockTime = 0 s

Time = 0.000665895

DEBUG cell=0 t=0.000630848→0.000665895 step=3.50471e-05 V=-1.00007 u1=0.00132849 u2=0.998984 u3=0 Iion=2.96619
DEBUG cell=0 t=0.000630848→0.000665895 step=0.000315424 V=-1.00007 u1=0.00134605 u2=0.998949 u3=0 Iion=2.9662
PIMPLE: iteration 1
DICPCG:  Solving for Vm, Initial residual = 8.75755e-06, Final residual = 8.01744e-16, No Iterations 4
PIMPLE: iteration 2
DICPCG:  Solving for Vm, Initial residual = 8.02868e-16, Final residual = 8.02868e-16, No Iterations 0
ExecutionTime = 0.05 s  ClockTime = 0 s

Time = 0.000700942

DEBUG cell=0 t=0.000665895→0.000700942 step=3.50471e-05 V=-1.00009 u1=0.00134605 u2=0.998949 u3=0 Iion=2.9662
DEBUG cell=0 t=0.000665895→0.000700942 step=0.000315424 V=-1.00009 u1=0.00136361 u2=0.998914 u3=0 Iion=2.96622
PIMPLE: iteration 1
DICPCG:  Solving for Vm, Initial residual = 8.75724e-06, Final residual = 8.01716e-16, No Iterations 4
PIMPLE: iteration 2
DICPCG:  Solving for Vm, Initial residual = 7.9963e-16, Final residual = 7.9963e-16, No Iterations 0
ExecutionTime = 0.05 s  ClockTime = 0 s

Time = 0.000735989

DEBUG cell=0 t=0.000700942→0.000735989 step=3.50471e-05 V=-1.00011 u1=0.00136361 u2=0.998914 u3=0 Iion=2.96622
DEBUG cell=0 t=0.000700942→0.000735989 step=0.000315424 V=-1.00011 u1=0.00138117 u2=0.998879 u3=0 Iion=2.96624
PIMPLE: iteration 1
DICPCG:  Solving for Vm, Initial residual = 8.75693e-06, Final residual = 8.01687e-16, No Iterations 4
PIMPLE: iteration 2
DICPCG:  Solving for Vm, Initial residual = 8.02866e-16, Final residual = 8.02866e-16, No Iterations 0
ExecutionTime = 0.05 s  ClockTime = 0 s

Time = 0.000771036

DEBUG cell=0 t=0.000735989→0.000771036 step=3.50471e-05 V=-1.00013 u1=0.00138117 u2=0.998879 u3=0 Iion=2.96624
DEBUG cell=0 t=0.000735989→0.000771036 step=0.000315424 V=-1.00013 u1=0.00139873 u2=0.998844 u3=0 Iion=2.96626
PIMPLE: iteration 1
DICPCG:  Solving for Vm, Initial residual = 8.75663e-06, Final residual = 8.01659e-16, No Iterations 4
PIMPLE: iteration 2
DICPCG:  Solving for Vm, Initial residual = 8.01688e-16, Final residual = 8.01688e-16, No Iterations 0
ExecutionTime = 0.05 s  ClockTime = 0 s

Time = 0.000806083

DEBUG cell=0 t=0.000771036→0.000806083 step=3.50471e-05 V=-1.00014 u1=0.00139873 u2=0.998844 u3=0 Iion=2.96626
DEBUG cell=0 t=0.000771036→0.000806083 step=0.000315424 V=-1.00014 u1=0.00141629 u2=0.998809 u3=0 Iion=2.96627
PIMPLE: iteration 1
DICPCG:  Solving for Vm, Initial residual = 8.75632e-06, Final residual = 8.01631e-16, No Iterations 4
PIMPLE: iteration 2
DICPCG:  Solving for Vm, Initial residual = 8.02543e-16, Final residual = 8.02543e-16, No Iterations 0
ExecutionTime = 0.05 s  ClockTime = 0 s

Time = 0.00084113

DEBUG cell=0 t=0.000806083→0.00084113 step=3.50471e-05 V=-1.00016 u1=0.00141629 u2=0.998809 u3=0 Iion=2.96627
DEBUG cell=0 t=0.000806083→0.00084113 step=0.000315424 V=-1.00016 u1=0.00143385 u2=0.998774 u3=0 Iion=2.96629
PIMPLE: iteration 1
DICPCG:  Solving for Vm, Initial residual = 8.75601e-06, Final residual = 8.01603e-16, No Iterations 4
PIMPLE: iteration 2
DICPCG:  Solving for Vm, Initial residual = 8.00547e-16, Final residual = 8.00547e-16, No Iterations 0
ExecutionTime = 0.06 s  ClockTime = 0 s

Time = 0.000876177

DEBUG cell=0 t=0.00084113→0.000876177 step=3.50471e-05 V=-1.00018 u1=0.00143385 u2=0.998774 u3=0 Iion=2.96629
DEBUG cell=0 t=0.00084113→0.000876177 step=0.000315424 V=-1.00018 u1=0.00145141 u2=0.998739 u3=0 Iion=2.96631
PIMPLE: iteration 1
DICPCG:  Solving for Vm, Initial residual = 8.75571e-06, Final residual = 8.01575e-16, No Iterations 4
PIMPLE: iteration 2
DICPCG:  Solving for Vm, Initial residual = 8.01507e-16, Final residual = 8.01507e-16, No Iterations 0
ExecutionTime = 0.06 s  ClockTime = 0 s

Time = 0.000911225

DEBUG cell=0 t=0.000876177→0.000911225 step=3.50471e-05 V=-1.0002 u1=0.00145141 u2=0.998739 u3=0 Iion=2.96631
DEBUG cell=0 t=0.000876177→0.000911225 step=0.000315424 V=-1.0002 u1=0.00146898 u2=0.998704 u3=0 Iion=2.96632
PIMPLE: iteration 1
DICPCG:  Solving for Vm, Initial residual = 8.7554e-06, Final residual = 8.01547e-16, No Iterations 4
PIMPLE: iteration 2
DICPCG:  Solving for Vm, Initial residual = 8.0196e-16, Final residual = 8.0196e-16, No Iterations 0
ExecutionTime = 0.06 s  ClockTime = 0 s

Time = 0.000946272

DEBUG cell=0 t=0.000911225→0.000946272 step=3.50471e-05 V=-1.00021 u1=0.00146898 u2=0.998704 u3=0 Iion=2.96632
DEBUG cell=0 t=0.000911225→0.000946272 step=0.000315424 V=-1.00021 u1=0.00148654 u2=0.998669 u3=0 Iion=2.96634
PIMPLE: iteration 1
DICPCG:  Solving for Vm, Initial residual = 8.7551e-06, Final residual = 8.01519e-16, No Iterations 4
PIMPLE: iteration 2
DICPCG:  Solving for Vm, Initial residual = 8.00872e-16, Final residual = 8.00872e-16, No Iterations 0
ExecutionTime = 0.06 s  ClockTime = 0 s

Time = 0.000981319

DEBUG cell=0 t=0.000946272→0.000981319 step=3.50471e-05 V=-1.00023 u1=0.00148654 u2=0.998669 u3=0 Iion=2.96634
DEBUG cell=0 t=0.000946272→0.000981319 step=0.000315424 V=-1.00023 u1=0.0015041 u2=0.998634 u3=0 Iion=2.96636
PIMPLE: iteration 1
DICPCG:  Solving for Vm, Initial residual = 8.75479e-06, Final residual = 8.01491e-16, No Iterations 4
PIMPLE: iteration 2
DICPCG:  Solving for Vm, Initial residual = 8.01917e-16, Final residual = 8.01917e-16, No Iterations 0
ExecutionTime = 0.07 s  ClockTime = 0 s

Time = 0.00101637

DEBUG cell=0 t=0.000981319→0.00101637 step=3.50471e-05 V=-1.00025 u1=0.0015041 u2=0.998634 u3=0 Iion=2.96636
DEBUG cell=0 t=0.000981319→0.00101637 step=0.000315424 V=-1.00025 u1=0.00152167 u2=0.9986 u3=0 Iion=2.96637
PIMPLE: iteration 1
DICPCG:  Solving for Vm, Initial residual = 8.75448e-06, Final residual = 8.01463e-16, No Iterations 4
PIMPLE: iteration 2
DICPCG:  Solving for Vm, Initial residual = 8.01583e-16, Final residual = 8.01583e-16, No Iterations 0
ExecutionTime = 0.07 s  ClockTime = 0 s

Time = 0.00105141

DEBUG cell=0 t=0.00101637→0.00105141 step=3.50471e-05 V=-1.00027 u1=0.00152167 u2=0.9986 u3=0 Iion=2.96637
DEBUG cell=0 t=0.00101637→0.00105141 step=0.000315424 V=-1.00027 u1=0.00153923 u2=0.998565 u3=0 Iion=2.96639
PIMPLE: iteration 1
DICPCG:  Solving for Vm, Initial residual = 8.75418e-06, Final residual = 8.01435e-16, No Iterations 4
PIMPLE: iteration 2
DICPCG:  Solving for Vm, Initial residual = 8.00419e-16, Final residual = 8.00419e-16, No Iterations 0
ExecutionTime = 0.08 s  ClockTime = 0 s

Time = 0.00108646

DEBUG cell=0 t=0.00105141→0.00108646 step=3.50471e-05 V=-1.00028 u1=0.00153923 u2=0.998565 u3=0 Iion=2.96639
DEBUG cell=0 t=0.00105141→0.00108646 step=0.000315424 V=-1.00028 u1=0.00155679 u2=0.99853 u3=0 Iion=2.96641
PIMPLE: iteration 1
DICPCG:  Solving for Vm, Initial residual = 8.75387e-06, Final residual = 8.01407e-16, No Iterations 4
PIMPLE: iteration 2
DICPCG:  Solving for Vm, Initial residual = 8.0219e-16, Final residual = 8.0219e-16, No Iterations 0
ExecutionTime = 0.08 s  ClockTime = 0 s

Time = 0.00112151

DEBUG cell=0 t=0.00108646→0.00112151 step=3.50471e-05 V=-1.0003 u1=0.00155679 u2=0.99853 u3=0 Iion=2.96641
DEBUG cell=0 t=0.00108646→0.00112151 step=0.000315424 V=-1.0003 u1=0.00157436 u2=0.998495 u3=0 Iion=2.96642
PIMPLE: iteration 1
DICPCG:  Solving for Vm, Initial residual = 8.75356e-06, Final residual = 8.01379e-16, No Iterations 4
PIMPLE: iteration 2
DICPCG:  Solving for Vm, Initial residual = 8.01054e-16, Final residual = 8.01054e-16, No Iterations 0
ExecutionTime = 0.08 s  ClockTime = 0 s

Time = 0.00115655

DEBUG cell=0 t=0.00112151→0.00115655 step=3.50471e-05 V=-1.00032 u1=0.00157436 u2=0.998495 u3=0 Iion=2.96642
DEBUG cell=0 t=0.00112151→0.00115655 step=0.000315424 V=-1.00032 u1=0.00159192 u2=0.99846 u3=0 Iion=2.96644
PIMPLE: iteration 1
DICPCG:  Solving for Vm, Initial residual = 8.75326e-06, Final residual = 8.01351e-16, No Iterations 4
PIMPLE: iteration 2
DICPCG:  Solving for Vm, Initial residual = 8.02379e-16, Final residual = 8.02379e-16, No Iterations 0
ExecutionTime = 0.09 s  ClockTime = 0 s

Time = 0.0011916

DEBUG cell=0 t=0.00115655→0.0011916 step=3.50471e-05 V=-1.00034 u1=0.00159192 u2=0.99846 u3=0 Iion=2.96644
DEBUG cell=0 t=0.00115655→0.0011916 step=0.000315424 V=-1.00034 u1=0.00160949 u2=0.998425 u3=0 Iion=2.96646
PIMPLE: iteration 1
DICPCG:  Solving for Vm, Initial residual = 8.75295e-06, Final residual = 8.01323e-16, No Iterations 4
PIMPLE: iteration 2
DICPCG:  Solving for Vm, Initial residual = 8.01546e-16, Final residual = 8.01546e-16, No Iterations 0
ExecutionTime = 0.09 s  ClockTime = 0 s

Time = 0.00122665

DEBUG cell=0 t=0.0011916→0.00122665 step=3.50471e-05 V=-1.00035 u1=0.00160949 u2=0.998425 u3=0 Iion=2.96646
DEBUG cell=0 t=0.0011916→0.00122665 step=0.000315424 V=-1.00035 u1=0.00162705 u2=0.99839 u3=0 Iion=2.96648
PIMPLE: iteration 1
DICPCG:  Solving for Vm, Initial residual = 8.75264e-06, Final residual = 8.01295e-16, No Iterations 4
PIMPLE: iteration 2
DICPCG:  Solving for Vm, Initial residual = 8.01787e-16, Final residual = 8.01787e-16, No Iterations 0
ExecutionTime = 0.09 s  ClockTime = 0 s

Time = 0.0012617

DEBUG cell=0 t=0.00122665→0.0012617 step=3.50471e-05 V=-1.00037 u1=0.00162705 u2=0.99839 u3=0 Iion=2.96648
DEBUG cell=0 t=0.00122665→0.0012617 step=0.000315424 V=-1.00037 u1=0.00164462 u2=0.998355 u3=0 Iion=2.96649
PIMPLE: iteration 1
DICPCG:  Solving for Vm, Initial residual = 8.75234e-06, Final residual = 8.01267e-16, No Iterations 4
PIMPLE: iteration 2
DICPCG:  Solving for Vm, Initial residual = 7.99738e-16, Final residual = 7.99738e-16, No Iterations 0
ExecutionTime = 0.09 s  ClockTime = 0 s

Time = 0.00129674

DEBUG cell=0 t=0.0012617→0.00129674 step=3.50471e-05 V=-1.00039 u1=0.00164462 u2=0.998355 u3=0 Iion=2.96649
DEBUG cell=0 t=0.0012617→0.00129674 step=0.000315424 V=-1.00039 u1=0.00166218 u2=0.99832 u3=0 Iion=2.96651
PIMPLE: iteration 1
DICPCG:  Solving for Vm, Initial residual = 8.75203e-06, Final residual = 8.01239e-16, No Iterations 4
PIMPLE: iteration 2
DICPCG:  Solving for Vm, Initial residual = 8.01629e-16, Final residual = 8.01629e-16, No Iterations 0
ExecutionTime = 0.1 s  ClockTime = 0 s

Time = 0.00133179

DEBUG cell=0 t=0.00129674→0.00133179 step=3.50471e-05 V=-1.00041 u1=0.00166218 u2=0.99832 u3=0 Iion=2.96651
DEBUG cell=0 t=0.00129674→0.00133179 step=0.000315424 V=-1.00041 u1=0.00167975 u2=0.998285 u3=0 Iion=2.96653
PIMPLE: iteration 1
DICPCG:  Solving for Vm, Initial residual = 8.75173e-06, Final residual = 8.01211e-16, No Iterations 4
PIMPLE: iteration 2
DICPCG:  Solving for Vm, Initial residual = 8.01437e-16, Final residual = 8.01437e-16, No Iterations 0
ExecutionTime = 0.1 s  ClockTime = 0 s

Time = 0.00136684

DEBUG cell=0 t=0.00133179→0.00136684 step=3.50471e-05 V=-1.00042 u1=0.00167975 u2=0.998285 u3=0 Iion=2.96653
DEBUG cell=0 t=0.00133179→0.00136684 step=0.000315424 V=-1.00042 u1=0.00169732 u2=0.99825 u3=0 Iion=2.96654
PIMPLE: iteration 1
DICPCG:  Solving for Vm, Initial residual = 8.75142e-06, Final residual = 8.01183e-16, No Iterations 4
PIMPLE: iteration 2
DICPCG:  Solving for Vm, Initial residual = 8.00733e-16, Final residual = 8.00733e-16, No Iterations 0
ExecutionTime = 0.1 s  ClockTime = 0 s

Time = 0.00140188

DEBUG cell=0 t=0.00136684→0.00140188 step=3.50471e-05 V=-1.00044 u1=0.00169732 u2=0.99825 u3=0 Iion=2.96654
DEBUG cell=0 t=0.00136684→0.00140188 step=0.000315424 V=-1.00044 u1=0.00171488 u2=0.998215 u3=0 Iion=2.96656
PIMPLE: iteration 1
DICPCG:  Solving for Vm, Initial residual = 8.75111e-06, Final residual = 8.01155e-16, No Iterations 4
PIMPLE: iteration 2
DICPCG:  Solving for Vm, Initial residual = 8.00282e-16, Final residual = 8.00282e-16, No Iterations 0
ExecutionTime = 0.1 s  ClockTime = 0 s

Time = 0.00143693

DEBUG cell=0 t=0.00140188→0.00143693 step=3.50471e-05 V=-1.00046 u1=0.00171488 u2=0.998215 u3=0 Iion=2.96656
DEBUG cell=0 t=0.00140188→0.00143693 step=0.000315424 V=-1.00046 u1=0.00173245 u2=0.99818 u3=0 Iion=2.96658
PIMPLE: iteration 1
DICPCG:  Solving for Vm, Initial residual = 8.75081e-06, Final residual = 8.01126e-16, No Iterations 4
PIMPLE: iteration 2
DICPCG:  Solving for Vm, Initial residual = 8.01705e-16, Final residual = 8.01705e-16, No Iterations 0
ExecutionTime = 0.1 s  ClockTime = 0 s

Time = 0.00147198

DEBUG cell=0 t=0.00143693→0.00147198 step=3.50471e-05 V=-1.00048 u1=0.00173245 u2=0.99818 u3=0 Iion=2.96658
DEBUG cell=0 t=0.00143693→0.00147198 step=0.000315424 V=-1.00048 u1=0.00175002 u2=0.998145 u3=0 Iion=2.96659
PIMPLE: iteration 1
DICPCG:  Solving for Vm, Initial residual = 8.7505e-06, Final residual = 8.01098e-16, No Iterations 4
PIMPLE: iteration 2
DICPCG:  Solving for Vm, Initial residual = 8.01923e-16, Final residual = 8.01923e-16, No Iterations 0
ExecutionTime = 0.11 s  ClockTime = 0 s

Time = 0.00150703

DEBUG cell=0 t=0.00147198→0.00150703 step=3.50471e-05 V=-1.00049 u1=0.00175002 u2=0.998145 u3=0 Iion=2.96659
DEBUG cell=0 t=0.00147198→0.00150703 step=0.000315424 V=-1.00049 u1=0.00176758 u2=0.99811 u3=0 Iion=2.96661
PIMPLE: iteration 1
DICPCG:  Solving for Vm, Initial residual = 8.75019e-06, Final residual = 8.0107e-16, No Iterations 4
PIMPLE: iteration 2
DICPCG:  Solving for Vm, Initial residual = 8.00004e-16, Final residual = 8.00004e-16, No Iterations 0
ExecutionTime = 0.11 s  ClockTime = 0 s

Time = 0.00154207

DEBUG cell=0 t=0.00150703→0.00154207 step=3.50471e-05 V=-1.00051 u1=0.00176758 u2=0.99811 u3=0 Iion=2.96661
DEBUG cell=0 t=0.00150703→0.00154207 step=0.000315424 V=-1.00051 u1=0.00178515 u2=0.998075 u3=0 Iion=2.96663
PIMPLE: iteration 1
DICPCG:  Solving for Vm, Initial residual = 8.74989e-06, Final residual = 8.01042e-16, No Iterations 4
PIMPLE: iteration 2
DICPCG:  Solving for Vm, Initial residual = 8.02543e-16, Final residual = 8.02543e-16, No Iterations 0
ExecutionTime = 0.11 s  ClockTime = 0 s

Time = 0.00157712

DEBUG cell=0 t=0.00154207→0.00157712 step=3.50471e-05 V=-1.00053 u1=0.00178515 u2=0.998075 u3=0 Iion=2.96663
DEBUG cell=0 t=0.00154207→0.00157712 step=0.000315424 V=-1.00053 u1=0.00180272 u2=0.99804 u3=0 Iion=2.96665
PIMPLE: iteration 1
DICPCG:  Solving for Vm, Initial residual = 8.74958e-06, Final residual = 8.01014e-16, No Iterations 4
PIMPLE: iteration 2
DICPCG:  Solving for Vm, Initial residual = 8.01972e-16, Final residual = 8.01972e-16, No Iterations 0
ExecutionTime = 0.11 s  ClockTime = 0 s

Time = 0.00161217

DEBUG cell=0 t=0.00157712→0.00161217 step=3.50471e-05 V=-1.00055 u1=0.00180272 u2=0.99804 u3=0 Iion=2.96665
DEBUG cell=0 t=0.00157712→0.00161217 step=0.000315424 V=-1.00055 u1=0.00182029 u2=0.998006 u3=0 Iion=2.96666
PIMPLE: iteration 1
DICPCG:  Solving for Vm, Initial residual = 8.74928e-06, Final residual = 8.00986e-16, No Iterations 4
PIMPLE: iteration 2
DICPCG:  Solving for Vm, Initial residual = 8.00494e-16, Final residual = 8.00494e-16, No Iterations 0
ExecutionTime = 0.11 s  ClockTime = 0 s

Time = 0.00164721

DEBUG cell=0 t=0.00161217→0.00164721 step=3.50471e-05 V=-1.00056 u1=0.00182029 u2=0.998006 u3=0 Iion=2.96666
DEBUG cell=0 t=0.00161217→0.00164721 step=0.000315424 V=-1.00056 u1=0.00183786 u2=0.997971 u3=0 Iion=2.96668
PIMPLE: iteration 1
DICPCG:  Solving for Vm, Initial residual = 8.74897e-06, Final residual = 8.00958e-16, No Iterations 4
PIMPLE: iteration 2
DICPCG:  Solving for Vm, Initial residual = 8.01704e-16, Final residual = 8.01704e-16, No Iterations 0
ExecutionTime = 0.12 s  ClockTime = 0 s

Time = 0.00168226

DEBUG cell=0 t=0.00164721→0.00168226 step=3.50471e-05 V=-1.00058 u1=0.00183786 u2=0.997971 u3=0 Iion=2.96668
DEBUG cell=0 t=0.00164721→0.00168226 step=0.000315424 V=-1.00058 u1=0.00185543 u2=0.997936 u3=0 Iion=2.9667
PIMPLE: iteration 1
DICPCG:  Solving for Vm, Initial residual = 8.74866e-06, Final residual = 8.0093e-16, No Iterations 4
PIMPLE: iteration 2
DICPCG:  Solving for Vm, Initial residual = 8.01046e-16, Final residual = 8.01046e-16, No Iterations 0
ExecutionTime = 0.12 s  ClockTime = 0 s

Time = 0.00171731

DEBUG cell=0 t=0.00168226→0.00171731 step=3.50471e-05 V=-1.0006 u1=0.00185543 u2=0.997936 u3=0 Iion=2.9667
DEBUG cell=0 t=0.00168226→0.00171731 step=0.000315424 V=-1.0006 u1=0.001873 u2=0.997901 u3=0 Iion=2.96671
PIMPLE: iteration 1
DICPCG:  Solving for Vm, Initial residual = 8.74836e-06, Final residual = 8.00902e-16, No Iterations 4
PIMPLE: iteration 2
DICPCG:  Solving for Vm, Initial residual = 8.00963e-16, Final residual = 8.00963e-16, No Iterations 0
ExecutionTime = 0.12 s  ClockTime = 0 s

Time = 0.00175235

DEBUG cell=0 t=0.00171731→0.00175235 step=3.50471e-05 V=-1.00062 u1=0.001873 u2=0.997901 u3=0 Iion=2.96671
DEBUG cell=0 t=0.00171731→0.00175235 step=0.000315424 V=-1.00062 u1=0.00189056 u2=0.997866 u3=0 Iion=2.96673
PIMPLE: iteration 1
DICPCG:  Solving for Vm, Initial residual = 8.74805e-06, Final residual = 8.00874e-16, No Iterations 4
PIMPLE: iteration 2
DICPCG:  Solving for Vm, Initial residual = 8.01484e-16, Final residual = 8.01484e-16, No Iterations 0
ExecutionTime = 0.12 s  ClockTime = 0 s

Time = 0.0017874

DEBUG cell=0 t=0.00175235→0.0017874 step=3.50471e-05 V=-1.00063 u1=0.00189056 u2=0.997866 u3=0 Iion=2.96673
DEBUG cell=0 t=0.00175235→0.0017874 step=0.000315424 V=-1.00063 u1=0.00190813 u2=0.997831 u3=0 Iion=2.96675
PIMPLE: iteration 1
DICPCG:  Solving for Vm, Initial residual = 8.74775e-06, Final residual = 8.00846e-16, No Iterations 4
PIMPLE: iteration 2
DICPCG:  Solving for Vm, Initial residual = 8.0051e-16, Final residual = 8.0051e-16, No Iterations 0
ExecutionTime = 0.13 s  ClockTime = 0 s

Time = 0.00182245

DEBUG cell=0 t=0.0017874→0.00182245 step=3.50471e-05 V=-1.00065 u1=0.00190813 u2=0.997831 u3=0 Iion=2.96675
DEBUG cell=0 t=0.0017874→0.00182245 step=0.000315424 V=-1.00065 u1=0.00192571 u2=0.997796 u3=0 Iion=2.96676
PIMPLE: iteration 1
DICPCG:  Solving for Vm, Initial residual = 8.74744e-06, Final residual = 8.00818e-16, No Iterations 4
PIMPLE: iteration 2
DICPCG:  Solving for Vm, Initial residual = 8.01138e-16, Final residual = 8.01138e-16, No Iterations 0
ExecutionTime = 0.13 s  ClockTime = 0 s

Time = 0.0018575

DEBUG cell=0 t=0.00182245→0.0018575 step=3.50471e-05 V=-1.00067 u1=0.00192571 u2=0.997796 u3=0 Iion=2.96676
DEBUG cell=0 t=0.00182245→0.0018575 step=0.000315424 V=-1.00067 u1=0.00194328 u2=0.997761 u3=0 Iion=2.96678
PIMPLE: iteration 1
DICPCG:  Solving for Vm, Initial residual = 8.74713e-06, Final residual = 8.0079e-16, No Iterations 4
PIMPLE: iteration 2
DICPCG:  Solving for Vm, Initial residual = 8.01848e-16, Final residual = 8.01848e-16, No Iterations 0
ExecutionTime = 0.13 s  ClockTime = 0 s

Time = 0.00189254

DEBUG cell=0 t=0.0018575→0.00189254 step=3.50471e-05 V=-1.00069 u1=0.00194328 u2=0.997761 u3=0 Iion=2.96678
DEBUG cell=0 t=0.0018575→0.00189254 step=0.000315424 V=-1.00069 u1=0.00196085 u2=0.997726 u3=0 Iion=2.9668
PIMPLE: iteration 1
DICPCG:  Solving for Vm, Initial residual = 8.74683e-06, Final residual = 8.00762e-16, No Iterations 4
PIMPLE: iteration 2
DICPCG:  Solving for Vm, Initial residual = 8.01537e-16, Final residual = 8.01537e-16, No Iterations 0
ExecutionTime = 0.13 s  ClockTime = 0 s

Time = 0.00192759

DEBUG cell=0 t=0.00189254→0.00192759 step=3.50471e-05 V=-1.0007 u1=0.00196085 u2=0.997726 u3=0 Iion=2.9668
DEBUG cell=0 t=0.00189254→0.00192759 step=0.000315424 V=-1.0007 u1=0.00197842 u2=0.997691 u3=0 Iion=2.96682
PIMPLE: iteration 1
DICPCG:  Solving for Vm, Initial residual = 8.74652e-06, Final residual = 8.00734e-16, No Iterations 4
PIMPLE: iteration 2
DICPCG:  Solving for Vm, Initial residual = 8.01369e-16, Final residual = 8.01369e-16, No Iterations 0
ExecutionTime = 0.13 s  ClockTime = 0 s

Time = 0.00196264

DEBUG cell=0 t=0.00192759→0.00196264 step=3.50471e-05 V=-1.00072 u1=0.00197842 u2=0.997691 u3=0 Iion=2.96682
DEBUG cell=0 t=0.00192759→0.00196264 step=0.000315424 V=-1.00072 u1=0.00199599 u2=0.997656 u3=0 Iion=2.96683
PIMPLE: iteration 1
DICPCG:  Solving for Vm, Initial residual = 8.74622e-06, Final residual = 8.00706e-16, No Iterations 4
PIMPLE: iteration 2
DICPCG:  Solving for Vm, Initial residual = 8.00959e-16, Final residual = 8.00959e-16, No Iterations 0
ExecutionTime = 0.14 s  ClockTime = 0 s

Time = 0.00199768

DEBUG cell=0 t=0.00196264→0.00199768 step=3.50471e-05 V=-1.00074 u1=0.00199599 u2=0.997656 u3=0 Iion=2.96683
DEBUG cell=0 t=0.00196264→0.00199768 step=0.000315424 V=-1.00074 u1=0.00201356 u2=0.997622 u3=0 Iion=2.96685
PIMPLE: iteration 1
DICPCG:  Solving for Vm, Initial residual = 8.74591e-06, Final residual = 8.00678e-16, No Iterations 4
PIMPLE: iteration 2
DICPCG:  Solving for Vm, Initial residual = 8.01503e-16, Final residual = 8.01503e-16, No Iterations 0
ExecutionTime = 0.14 s  ClockTime = 0 s

Time = 0.00203273

DEBUG cell=0 t=0.00199768→0.00203273 step=3.50471e-05 V=-1.00076 u1=0.00201356 u2=0.997622 u3=0 Iion=2.96685
DEBUG cell=0 t=0.00199768→0.00203273 step=0.000315424 V=-1.00076 u1=0.00203113 u2=0.997587 u3=0 Iion=2.96687
PIMPLE: iteration 1
DICPCG:  Solving for Vm, Initial residual = 8.7456e-06, Final residual = 8.0065e-16, No Iterations 4
PIMPLE: iteration 2
DICPCG:  Solving for Vm, Initial residual = 8.01786e-16, Final residual = 8.01786e-16, No Iterations 0
ExecutionTime = 0.14 s  ClockTime = 0 s

Time = 0.00206778

DEBUG cell=0 t=0.00203273→0.00206778 step=3.50471e-05 V=-1.00077 u1=0.00203113 u2=0.997587 u3=0 Iion=2.96687
DEBUG cell=0 t=0.00203273→0.00206778 step=0.000315424 V=-1.00077 u1=0.00204871 u2=0.997552 u3=0 Iion=2.96688
PIMPLE: iteration 1
DICPCG:  Solving for Vm, Initial residual = 8.7453e-06, Final residual = 8.00622e-16, No Iterations 4
PIMPLE: iteration 2
DICPCG:  Solving for Vm, Initial residual = 8.00744e-16, Final residual = 8.00744e-16, No Iterations 0
ExecutionTime = 0.14 s  ClockTime = 0 s

Time = 0.00210283

DEBUG cell=0 t=0.00206778→0.00210283 step=3.50471e-05 V=-1.00079 u1=0.00204871 u2=0.997552 u3=0 Iion=2.96688
DEBUG cell=0 t=0.00206778→0.00210283 step=0.000315424 V=-1.00079 u1=0.00206628 u2=0.997517 u3=0 Iion=2.9669
PIMPLE: iteration 1
DICPCG:  Solving for Vm, Initial residual = 8.74499e-06, Final residual = 8.00594e-16, No Iterations 4
PIMPLE: iteration 2
DICPCG:  Solving for Vm, Initial residual = 8.01077e-16, Final residual = 8.01077e-16, No Iterations 0
ExecutionTime = 0.14 s  ClockTime = 0 s

Time = 0.00213787

DEBUG cell=0 t=0.00210283→0.00213787 step=3.50471e-05 V=-1.00081 u1=0.00206628 u2=0.997517 u3=0 Iion=2.9669
DEBUG cell=0 t=0.00210283→0.00213787 step=0.000315424 V=-1.00081 u1=0.00208385 u2=0.997482 u3=0 Iion=2.96692
PIMPLE: iteration 1
DICPCG:  Solving for Vm, Initial residual = 8.74469e-06, Final residual = 8.00566e-16, No Iterations 4
PIMPLE: iteration 2
DICPCG:  Solving for Vm, Initial residual = 8.00381e-16, Final residual = 8.00381e-16, No Iterations 0
ExecutionTime = 0.15 s  ClockTime = 0 s

Time = 0.00217292

DEBUG cell=0 t=0.00213787→0.00217292 step=3.50471e-05 V=-1.00083 u1=0.00208385 u2=0.997482 u3=0 Iion=2.96692
DEBUG cell=0 t=0.00213787→0.00217292 step=0.000315424 V=-1.00083 u1=0.00210143 u2=0.997447 u3=0 Iion=2.96693
PIMPLE: iteration 1
DICPCG:  Solving for Vm, Initial residual = 8.74438e-06, Final residual = 8.00538e-16, No Iterations 4
PIMPLE: iteration 2
DICPCG:  Solving for Vm, Initial residual = 8.01767e-16, Final residual = 8.01767e-16, No Iterations 0
ExecutionTime = 0.15 s  ClockTime = 0 s

Time = 0.00220797

DEBUG cell=0 t=0.00217292→0.00220797 step=3.50471e-05 V=-1.00084 u1=0.00210143 u2=0.997447 u3=0 Iion=2.96693
DEBUG cell=0 t=0.00217292→0.00220797 step=0.000315424 V=-1.00084 u1=0.002119 u2=0.997412 u3=0 Iion=2.96695
PIMPLE: iteration 1
DICPCG:  Solving for Vm, Initial residual = 8.74408e-06, Final residual = 8.0051e-16, No Iterations 4
PIMPLE: iteration 2
DICPCG:  Solving for Vm, Initial residual = 8.01192e-16, Final residual = 8.01192e-16, No Iterations 0
ExecutionTime = 0.15 s  ClockTime = 0 s

Time = 0.00224301

DEBUG cell=0 t=0.00220797→0.00224301 step=3.50471e-05 V=-1.00086 u1=0.002119 u2=0.997412 u3=0 Iion=2.96695
DEBUG cell=0 t=0.00220797→0.00224301 step=0.000315424 V=-1.00086 u1=0.00213657 u2=0.997377 u3=0 Iion=2.96697
PIMPLE: iteration 1
DICPCG:  Solving for Vm, Initial residual = 8.74377e-06, Final residual = 8.00482e-16, No Iterations 4
PIMPLE: iteration 2
DICPCG:  Solving for Vm, Initial residual = 8.00077e-16, Final residual = 8.00077e-16, No Iterations 0
ExecutionTime = 0.15 s  ClockTime = 0 s

Time = 0.00227806

DEBUG cell=0 t=0.00224301→0.00227806 step=3.50471e-05 V=-1.00088 u1=0.00213657 u2=0.997377 u3=0 Iion=2.96697
DEBUG cell=0 t=0.00224301→0.00227806 step=0.000315424 V=-1.00088 u1=0.00215415 u2=0.997342 u3=0 Iion=2.96698
PIMPLE: iteration 1
DICPCG:  Solving for Vm, Initial residual = 8.74346e-06, Final residual = 8.00454e-16, No Iterations 4
PIMPLE: iteration 2
DICPCG:  Solving for Vm, Initial residual = 8.00059e-16, Final residual = 8.00059e-16, No Iterations 0
ExecutionTime = 0.15 s  ClockTime = 0 s

Time = 0.00231311

DEBUG cell=0 t=0.00227806→0.00231311 step=3.50471e-05 V=-1.0009 u1=0.00215415 u2=0.997342 u3=0 Iion=2.96698
DEBUG cell=0 t=0.00227806→0.00231311 step=0.000315424 V=-1.0009 u1=0.00217172 u2=0.997308 u3=0 Iion=2.967
PIMPLE: iteration 1
DICPCG:  Solving for Vm, Initial residual = 8.74316e-06, Final residual = 8.00426e-16, No Iterations 4
PIMPLE: iteration 2
DICPCG:  Solving for Vm, Initial residual = 8.00829e-16, Final residual = 8.00829e-16, No Iterations 0
ExecutionTime = 0.16 s  ClockTime = 1 s

Time = 0.00234816

DEBUG cell=0 t=0.00231311→0.00234816 step=3.50471e-05 V=-1.00091 u1=0.00217172 u2=0.997308 u3=0 Iion=2.967
DEBUG cell=0 t=0.00231311→0.00234816 step=0.000315424 V=-1.00091 u1=0.0021893 u2=0.997273 u3=0 Iion=2.96702
PIMPLE: iteration 1
DICPCG:  Solving for Vm, Initial residual = 8.74285e-06, Final residual = 8.00398e-16, No Iterations 4
PIMPLE: iteration 2
DICPCG:  Solving for Vm, Initial residual = 8.01294e-16, Final residual = 8.01294e-16, No Iterations 0
ExecutionTime = 0.16 s  ClockTime = 1 s

Time = 0.0023832

DEBUG cell=0 t=0.00234816→0.0023832 step=3.50471e-05 V=-1.00093 u1=0.0021893 u2=0.997273 u3=0 Iion=2.96702
DEBUG cell=0 t=0.00234816→0.0023832 step=0.000315424 V=-1.00093 u1=0.00220687 u2=0.997238 u3=0 Iion=2.96704
PIMPLE: iteration 1
DICPCG:  Solving for Vm, Initial residual = 8.74255e-06, Final residual = 8.0037e-16, No Iterations 4
PIMPLE: iteration 2
DICPCG:  Solving for Vm, Initial residual = 7.9994e-16, Final residual = 7.9994e-16, No Iterations 0
ExecutionTime = 0.16 s  ClockTime = 1 s

Time = 0.00241825

DEBUG cell=0 t=0.0023832→0.00241825 step=3.50471e-05 V=-1.00095 u1=0.00220687 u2=0.997238 u3=0 Iion=2.96704
DEBUG cell=0 t=0.0023832→0.00241825 step=0.000315424 V=-1.00095 u1=0.00222445 u2=0.997203 u3=0 Iion=2.96705
PIMPLE: iteration 1
DICPCG:  Solving for Vm, Initial residual = 8.74224e-06, Final residual = 8.00342e-16, No Iterations 4
PIMPLE: iteration 2
DICPCG:  Solving for Vm, Initial residual = 8.00715e-16, Final residual = 8.00715e-16, No Iterations 0
ExecutionTime = 0.16 s  ClockTime = 1 s

Time = 0.0024533

DEBUG cell=0 t=0.00241825→0.0024533 step=3.50471e-05 V=-1.00097 u1=0.00222445 u2=0.997203 u3=0 Iion=2.96705
DEBUG cell=0 t=0.00241825→0.0024533 step=0.000315424 V=-1.00097 u1=0.00224202 u2=0.997168 u3=0 Iion=2.96707
PIMPLE: iteration 1
DICPCG:  Solving for Vm, Initial residual = 8.74194e-06, Final residual = 8.00314e-16, No Iterations 4
PIMPLE: iteration 2
DICPCG:  Solving for Vm, Initial residual = 8.00645e-16, Final residual = 8.00645e-16, No Iterations 0
ExecutionTime = 0.17 s  ClockTime = 1 s

Time = 0.00248834

DEBUG cell=0 t=0.0024533→0.00248834 step=3.50471e-05 V=-1.00098 u1=0.00224202 u2=0.997168 u3=0 Iion=2.96707
DEBUG cell=0 t=0.0024533→0.00248834 step=0.000315424 V=-1.00098 u1=0.0022596 u2=0.997133 u3=0 Iion=2.96709
PIMPLE: iteration 1
DICPCG:  Solving for Vm, Initial residual = 8.74163e-06, Final residual = 8.00286e-16, No Iterations 4
PIMPLE: iteration 2
DICPCG:  Solving for Vm, Initial residual = 7.99773e-16, Final residual = 7.99773e-16, No Iterations 0
ExecutionTime = 0.17 s  ClockTime = 1 s

Time = 0.00252339

DEBUG cell=0 t=0.00248834→0.00252339 step=3.50471e-05 V=-1.001 u1=0.0022596 u2=0.997133 u3=0 Iion=2.96709
DEBUG cell=0 t=0.00248834→0.00252339 step=0.000315424 V=-1.001 u1=0.00227718 u2=0.997098 u3=0 Iion=2.9671
PIMPLE: iteration 1
DICPCG:  Solving for Vm, Initial residual = 8.74133e-06, Final residual = 8.00258e-16, No Iterations 4
PIMPLE: iteration 2
DICPCG:  Solving for Vm, Initial residual = 8.00775e-16, Final residual = 8.00775e-16, No Iterations 0
ExecutionTime = 0.17 s  ClockTime = 1 s

Time = 0.00255844

DEBUG cell=0 t=0.00252339→0.00255844 step=3.50471e-05 V=-1.00102 u1=0.00227718 u2=0.997098 u3=0 Iion=2.9671
DEBUG cell=0 t=0.00252339→0.00255844 step=0.000315424 V=-1.00102 u1=0.00229475 u2=0.997064 u3=0 Iion=2.96712
PIMPLE: iteration 1
DICPCG:  Solving for Vm, Initial residual = 8.74102e-06, Final residual = 8.00231e-16, No Iterations 4
PIMPLE: iteration 2
DICPCG:  Solving for Vm, Initial residual = 8.00634e-16, Final residual = 8.00634e-16, No Iterations 0
ExecutionTime = 0.17 s  ClockTime = 1 s

Time = 0.00259349

DEBUG cell=0 t=0.00255844→0.00259349 step=3.50471e-05 V=-1.00104 u1=0.00229475 u2=0.997064 u3=0 Iion=2.96712
DEBUG cell=0 t=0.00255844→0.00259349 step=0.000315424 V=-1.00104 u1=0.00231233 u2=0.997029 u3=0 Iion=2.96714
PIMPLE: iteration 1
DICPCG:  Solving for Vm, Initial residual = 8.74071e-06, Final residual = 8.00203e-16, No Iterations 4
PIMPLE: iteration 2
DICPCG:  Solving for Vm, Initial residual = 8.00421e-16, Final residual = 8.00421e-16, No Iterations 0
ExecutionTime = 0.17 s  ClockTime = 1 s

Time = 0.00262853

DEBUG cell=0 t=0.00259349→0.00262853 step=3.50471e-05 V=-1.00105 u1=0.00231233 u2=0.997029 u3=0 Iion=2.96714
DEBUG cell=0 t=0.00259349→0.00262853 step=0.000315424 V=-1.00105 u1=0.00232991 u2=0.996994 u3=0 Iion=2.96715
PIMPLE: iteration 1
DICPCG:  Solving for Vm, Initial residual = 8.74041e-06, Final residual = 8.00175e-16, No Iterations 4
PIMPLE: iteration 2
DICPCG:  Solving for Vm, Initial residual = 8.00412e-16, Final residual = 8.00412e-16, No Iterations 0
ExecutionTime = 0.18 s  ClockTime = 1 s

Time = 0.00266358

DEBUG cell=0 t=0.00262853→0.00266358 step=3.50471e-05 V=-1.00107 u1=0.00232991 u2=0.996994 u3=0 Iion=2.96715
DEBUG cell=0 t=0.00262853→0.00266358 step=0.000315424 V=-1.00107 u1=0.00234748 u2=0.996959 u3=0 Iion=2.96717
PIMPLE: iteration 1
DICPCG:  Solving for Vm, Initial residual = 8.7401e-06, Final residual = 8.00147e-16, No Iterations 4
PIMPLE: iteration 2
DICPCG:  Solving for Vm, Initial residual = 7.99282e-16, Final residual = 7.99282e-16, No Iterations 0
ExecutionTime = 0.18 s  ClockTime = 1 s

Time = 0.00269863

DEBUG cell=0 t=0.00266358→0.00269863 step=3.50471e-05 V=-1.00109 u1=0.00234748 u2=0.996959 u3=0 Iion=2.96717
DEBUG cell=0 t=0.00266358→0.00269863 step=0.000315424 V=-1.00109 u1=0.00236506 u2=0.996924 u3=0 Iion=2.96719
PIMPLE: iteration 1
DICPCG:  Solving for Vm, Initial residual = 8.7398e-06, Final residual = 8.00119e-16, No Iterations 4
PIMPLE: iteration 2
DICPCG:  Solving for Vm, Initial residual = 8.01459e-16, Final residual = 8.01459e-16, No Iterations 0
ExecutionTime = 0.18 s  ClockTime = 1 s

Time = 0.00273367

DEBUG cell=0 t=0.00269863→0.00273367 step=3.50471e-05 V=-1.00111 u1=0.00236506 u2=0.996924 u3=0 Iion=2.96719
DEBUG cell=0 t=0.00269863→0.00273367 step=0.000315424 V=-1.00111 u1=0.00238264 u2=0.996889 u3=0 Iion=2.96721
PIMPLE: iteration 1
DICPCG:  Solving for Vm, Initial residual = 8.73949e-06, Final residual = 8.00091e-16, No Iterations 4
PIMPLE: iteration 2
DICPCG:  Solving for Vm, Initial residual = 8.00383e-16, Final residual = 8.00383e-16, No Iterations 0
ExecutionTime = 0.18 s  ClockTime = 1 s

Time = 0.00276872

DEBUG cell=0 t=0.00273367→0.00276872 step=3.50471e-05 V=-1.00112 u1=0.00238264 u2=0.996889 u3=0 Iion=2.96721
DEBUG cell=0 t=0.00273367→0.00276872 step=0.000315424 V=-1.00112 u1=0.00240022 u2=0.996854 u3=0 Iion=2.96722
PIMPLE: iteration 1
DICPCG:  Solving for Vm, Initial residual = 8.73919e-06, Final residual = 8.00063e-16, No Iterations 4
PIMPLE: iteration 2
DICPCG:  Solving for Vm, Initial residual = 8.00844e-16, Final residual = 8.00844e-16, No Iterations 0
ExecutionTime = 0.18 s  ClockTime = 1 s

Time = 0.00280377

DEBUG cell=0 t=0.00276872→0.00280377 step=3.50471e-05 V=-1.00114 u1=0.00240022 u2=0.996854 u3=0 Iion=2.96722
DEBUG cell=0 t=0.00276872→0.00280377 step=0.000315424 V=-1.00114 u1=0.0024178 u2=0.99682 u3=0 Iion=2.96724
PIMPLE: iteration 1
DICPCG:  Solving for Vm, Initial residual = 8.73888e-06, Final residual = 8.00035e-16, No Iterations 4
PIMPLE: iteration 2
DICPCG:  Solving for Vm, Initial residual = 8.00504e-16, Final residual = 8.00504e-16, No Iterations 0
ExecutionTime = 0.19 s  ClockTime = 1 s

Time = 0.00283882

DEBUG cell=0 t=0.00280377→0.00283882 step=3.50471e-05 V=-1.00116 u1=0.0024178 u2=0.99682 u3=0 Iion=2.96724
DEBUG cell=0 t=0.00280377→0.00283882 step=0.000315424 V=-1.00116 u1=0.00243538 u2=0.996785 u3=0 Iion=2.96726
PIMPLE: iteration 1
DICPCG:  Solving for Vm, Initial residual = 8.73858e-06, Final residual = 8.00007e-16, No Iterations 4
PIMPLE: iteration 2
DICPCG:  Solving for Vm, Initial residual = 8.00022e-16, Final residual = 8.00022e-16, No Iterations 0
ExecutionTime = 0.19 s  ClockTime = 1 s

Time = 0.00287386

DEBUG cell=0 t=0.00283882→0.00287386 step=3.50471e-05 V=-1.00118 u1=0.00243538 u2=0.996785 u3=0 Iion=2.96726
DEBUG cell=0 t=0.00283882→0.00287386 step=0.000315424 V=-1.00118 u1=0.00245296 u2=0.99675 u3=0 Iion=2.96727
PIMPLE: iteration 1
DICPCG:  Solving for Vm, Initial residual = 8.73827e-06, Final residual = 7.99979e-16, No Iterations 4
PIMPLE: iteration 2
DICPCG:  Solving for Vm, Initial residual = 8.00143e-16, Final residual = 8.00143e-16, No Iterations 0
ExecutionTime = 0.19 s  ClockTime = 1 s

Time = 0.00290891

DEBUG cell=0 t=0.00287386→0.00290891 step=3.50471e-05 V=-1.00119 u1=0.00245296 u2=0.99675 u3=0 Iion=2.96727
DEBUG cell=0 t=0.00287386→0.00290891 step=0.000315424 V=-1.00119 u1=0.00247054 u2=0.996715 u3=0 Iion=2.96729
PIMPLE: iteration 1
DICPCG:  Solving for Vm, Initial residual = 8.73797e-06, Final residual = 7.99951e-16, No Iterations 4
PIMPLE: iteration 2
DICPCG:  Solving for Vm, Initial residual = 8.00831e-16, Final residual = 8.00831e-16, No Iterations 0
ExecutionTime = 0.19 s  ClockTime = 1 s

Time = 0.00294396

DEBUG cell=0 t=0.00290891→0.00294396 step=3.50471e-05 V=-1.00121 u1=0.00247054 u2=0.996715 u3=0 Iion=2.96729
DEBUG cell=0 t=0.00290891→0.00294396 step=0.000315424 V=-1.00121 u1=0.00248812 u2=0.99668 u3=0 Iion=2.96731
PIMPLE: iteration 1
DICPCG:  Solving for Vm, Initial residual = 8.73766e-06, Final residual = 7.99923e-16, No Iterations 4
PIMPLE: iteration 2
DICPCG:  Solving for Vm, Initial residual = 7.99672e-16, Final residual = 7.99672e-16, No Iterations 0
ExecutionTime = 0.2 s  ClockTime = 1 s

Time = 0.002979

DEBUG cell=0 t=0.00294396→0.002979 step=3.50471e-05 V=-1.00123 u1=0.00248812 u2=0.99668 u3=0 Iion=2.96731
DEBUG cell=0 t=0.00294396→0.002979 step=0.000315424 V=-1.00123 u1=0.0025057 u2=0.996645 u3=0 Iion=2.96732
PIMPLE: iteration 1
DICPCG:  Solving for Vm, Initial residual = 8.73736e-06, Final residual = 7.99895e-16, No Iterations 4
PIMPLE: iteration 2
DICPCG:  Solving for Vm, Initial residual = 8.01801e-16, Final residual = 8.01801e-16, No Iterations 0
ExecutionTime = 0.2 s  ClockTime = 1 s

Time = 0.00301405

DEBUG cell=0 t=0.002979→0.00301405 step=3.50471e-05 V=-1.00125 u1=0.0025057 u2=0.996645 u3=0 Iion=2.96732
DEBUG cell=0 t=0.002979→0.00301405 step=0.000315424 V=-1.00125 u1=0.00252328 u2=0.996611 u3=0 Iion=2.96734
PIMPLE: iteration 1
DICPCG:  Solving for Vm, Initial residual = 8.73705e-06, Final residual = 7.99867e-16, No Iterations 4
PIMPLE: iteration 2
DICPCG:  Solving for Vm, Initial residual = 7.99749e-16, Final residual = 7.99749e-16, No Iterations 0
ExecutionTime = 0.2 s  ClockTime = 1 s

Time = 0.0030491

DEBUG cell=0 t=0.00301405→0.0030491 step=3.50471e-05 V=-1.00126 u1=0.00252328 u2=0.996611 u3=0 Iion=2.96734
DEBUG cell=0 t=0.00301405→0.0030491 step=0.000315424 V=-1.00126 u1=0.00254086 u2=0.996576 u3=0 Iion=2.96736
PIMPLE: iteration 1
DICPCG:  Solving for Vm, Initial residual = 8.73674e-06, Final residual = 7.99839e-16, No Iterations 4
PIMPLE: iteration 2
DICPCG:  Solving for Vm, Initial residual = 8.00425e-16, Final residual = 8.00425e-16, No Iterations 0
ExecutionTime = 0.2 s  ClockTime = 1 s

Time = 0.00308414

DEBUG cell=0 t=0.0030491→0.00308414 step=3.50471e-05 V=-1.00128 u1=0.00254086 u2=0.996576 u3=0 Iion=2.96736
DEBUG cell=0 t=0.0030491→0.00308414 step=0.000315424 V=-1.00128 u1=0.00255844 u2=0.996541 u3=0 Iion=2.96738
PIMPLE: iteration 1
DICPCG:  Solving for Vm, Initial residual = 8.73644e-06, Final residual = 7.99811e-16, No Iterations 4
PIMPLE: iteration 2
DICPCG:  Solving for Vm, Initial residual = 8.00203e-16, Final residual = 8.00203e-16, No Iterations 0
ExecutionTime = 0.2 s  ClockTime = 1 s

Time = 0.00311919

DEBUG cell=0 t=0.00308414→0.00311919 step=3.50471e-05 V=-1.0013 u1=0.00255844 u2=0.996541 u3=0 Iion=2.96738
DEBUG cell=0 t=0.00308414→0.00311919 step=0.000315424 V=-1.0013 u1=0.00257602 u2=0.996506 u3=0 Iion=2.96739
PIMPLE: iteration 1
DICPCG:  Solving for Vm, Initial residual = 8.73613e-06, Final residual = 7.99783e-16, No Iterations 4
PIMPLE: iteration 2
DICPCG:  Solving for Vm, Initial residual = 8.00081e-16, Final residual = 8.00081e-16, No Iterations 0
ExecutionTime = 0.21 s  ClockTime = 1 s

Time = 0.00315424

DEBUG cell=0 t=0.00311919→0.00315424 step=3.50471e-05 V=-1.00132 u1=0.00257602 u2=0.996506 u3=0 Iion=2.96739
DEBUG cell=0 t=0.00311919→0.00315424 step=0.000315424 V=-1.00132 u1=0.0025936 u2=0.996471 u3=0 Iion=2.96741
PIMPLE: iteration 1
DICPCG:  Solving for Vm, Initial residual = 8.73583e-06, Final residual = 7.99755e-16, No Iterations 4
PIMPLE: iteration 2
DICPCG:  Solving for Vm, Initial residual = 7.99115e-16, Final residual = 7.99115e-16, No Iterations 0
ExecutionTime = 0.21 s  ClockTime = 1 s

Time = 0.00318929

DEBUG cell=0 t=0.00315424→0.00318929 step=3.50471e-05 V=-1.00133 u1=0.0025936 u2=0.996471 u3=0 Iion=2.96741
DEBUG cell=0 t=0.00315424→0.00318929 step=0.000315424 V=-1.00133 u1=0.00261119 u2=0.996437 u3=0 Iion=2.96743
PIMPLE: iteration 1
DICPCG:  Solving for Vm, Initial residual = 8.73552e-06, Final residual = 7.99727e-16, No Iterations 4
PIMPLE: iteration 2
DICPCG:  Solving for Vm, Initial residual = 8.01056e-16, Final residual = 8.01056e-16, No Iterations 0
ExecutionTime = 0.21 s  ClockTime = 1 s

Time = 0.00322433

DEBUG cell=0 t=0.00318929→0.00322433 step=3.50471e-05 V=-1.00135 u1=0.00261119 u2=0.996437 u3=0 Iion=2.96743
DEBUG cell=0 t=0.00318929→0.00322433 step=0.000315424 V=-1.00135 u1=0.00262877 u2=0.996402 u3=0 Iion=2.96744
PIMPLE: iteration 1
DICPCG:  Solving for Vm, Initial residual = 8.73522e-06, Final residual = 7.99699e-16, No Iterations 4
PIMPLE: iteration 2
DICPCG:  Solving for Vm, Initial residual = 8.00276e-16, Final residual = 8.00276e-16, No Iterations 0
ExecutionTime = 0.21 s  ClockTime = 1 s

Time = 0.00325938

DEBUG cell=0 t=0.00322433→0.00325938 step=3.50471e-05 V=-1.00137 u1=0.00262877 u2=0.996402 u3=0 Iion=2.96744
DEBUG cell=0 t=0.00322433→0.00325938 step=0.000315424 V=-1.00137 u1=0.00264635 u2=0.996367 u3=0 Iion=2.96746
PIMPLE: iteration 1
DICPCG:  Solving for Vm, Initial residual = 8.73491e-06, Final residual = 7.99672e-16, No Iterations 4
PIMPLE: iteration 2
DICPCG:  Solving for Vm, Initial residual = 8.00222e-16, Final residual = 8.00222e-16, No Iterations 0
ExecutionTime = 0.21 s  ClockTime = 1 s

Time = 0.00329443

DEBUG cell=0 t=0.00325938→0.00329443 step=3.50471e-05 V=-1.00139 u1=0.00264635 u2=0.996367 u3=0 Iion=2.96746
DEBUG cell=0 t=0.00325938→0.00329443 step=0.000315424 V=-1.00139 u1=0.00266393 u2=0.996332 u3=0 Iion=2.96748
PIMPLE: iteration 1
DICPCG:  Solving for Vm, Initial residual = 8.73461e-06, Final residual = 7.99644e-16, No Iterations 4
PIMPLE: iteration 2
DICPCG:  Solving for Vm, Initial residual = 8.00173e-16, Final residual = 8.00173e-16, No Iterations 0
ExecutionTime = 0.22 s  ClockTime = 1 s

Time = 0.00332947

DEBUG cell=0 t=0.00329443→0.00332947 step=3.50471e-05 V=-1.0014 u1=0.00266393 u2=0.996332 u3=0 Iion=2.96748
DEBUG cell=0 t=0.00329443→0.00332947 step=0.000315424 V=-1.0014 u1=0.00268152 u2=0.996297 u3=0 Iion=2.96749
PIMPLE: iteration 1
DICPCG:  Solving for Vm, Initial residual = 8.7343e-06, Final residual = 7.99616e-16, No Iterations 4
PIMPLE: iteration 2
DICPCG:  Solving for Vm, Initial residual = 7.98585e-16, Final residual = 7.98585e-16, No Iterations 0
ExecutionTime = 0.22 s  ClockTime = 1 s

Time = 0.00336452

DEBUG cell=0 t=0.00332947→0.00336452 step=3.50471e-05 V=-1.00142 u1=0.00268152 u2=0.996297 u3=0 Iion=2.96749
DEBUG cell=0 t=0.00332947→0.00336452 step=0.000315424 V=-1.00142 u1=0.0026991 u2=0.996263 u3=0 Iion=2.96751
PIMPLE: iteration 1
DICPCG:  Solving for Vm, Initial residual = 8.734e-06, Final residual = 7.99588e-16, No Iterations 4
PIMPLE: iteration 2
DICPCG:  Solving for Vm, Initial residual = 8.00295e-16, Final residual = 8.00295e-16, No Iterations 0
ExecutionTime = 0.22 s  ClockTime = 1 s

Time = 0.00339957

DEBUG cell=0 t=0.00336452→0.00339957 step=3.50471e-05 V=-1.00144 u1=0.0026991 u2=0.996263 u3=0 Iion=2.96751
DEBUG cell=0 t=0.00336452→0.00339957 step=0.000315424 V=-1.00144 u1=0.00271669 u2=0.996228 u3=0 Iion=2.96753
PIMPLE: iteration 1
DICPCG:  Solving for Vm, Initial residual = 8.73369e-06, Final residual = 7.9956e-16, No Iterations 4
PIMPLE: iteration 2
DICPCG:  Solving for Vm, Initial residual = 7.99609e-16, Final residual = 7.99609e-16, No Iterations 0
ExecutionTime = 0.22 s  ClockTime = 1 s

Time = 0.00343462

DEBUG cell=0 t=0.00339957→0.00343462 step=3.50471e-05 V=-1.00146 u1=0.00271669 u2=0.996228 u3=0 Iion=2.96753
DEBUG cell=0 t=0.00339957→0.00343462 step=0.000315424 V=-1.00146 u1=0.00273427 u2=0.996193 u3=0 Iion=2.96754
PIMPLE: iteration 1
DICPCG:  Solving for Vm, Initial residual = 8.73339e-06, Final residual = 7.99532e-16, No Iterations 4
PIMPLE: iteration 2
DICPCG:  Solving for Vm, Initial residual = 7.99204e-16, Final residual = 7.99204e-16, No Iterations 0
ExecutionTime = 0.23 s  ClockTime = 1 s

Time = 0.00346966

DEBUG cell=0 t=0.00343462→0.00346966 step=3.50471e-05 V=-1.00147 u1=0.00273427 u2=0.996193 u3=0 Iion=2.96754
DEBUG cell=0 t=0.00343462→0.00346966 step=0.000315424 V=-1.00147 u1=0.00275185 u2=0.996158 u3=0 Iion=2.96756
PIMPLE: iteration 1
DICPCG:  Solving for Vm, Initial residual = 8.73308e-06, Final residual = 7.99504e-16, No Iterations 4
PIMPLE: iteration 2
DICPCG:  Solving for Vm, Initial residual = 7.99753e-16, Final residual = 7.99753e-16, No Iterations 0
ExecutionTime = 0.23 s  ClockTime = 1 s

Time = 0.00350471

DEBUG cell=0 t=0.00346966→0.00350471 step=3.50471e-05 V=-1.00149 u1=0.00275185 u2=0.996158 u3=0 Iion=2.96756
DEBUG cell=0 t=0.00346966→0.00350471 step=0.000315424 V=-1.00149 u1=0.00276944 u2=0.996123 u3=0 Iion=2.96758
PIMPLE: iteration 1
DICPCG:  Solving for Vm, Initial residual = 8.73278e-06, Final residual = 7.99476e-16, No Iterations 4
PIMPLE: iteration 2
DICPCG:  Solving for Vm, Initial residual = 7.99342e-16, Final residual = 7.99342e-16, No Iterations 0
ExecutionTime = 0.23 s  ClockTime = 1 s

Time = 0.00353976

DEBUG cell=0 t=0.00350471→0.00353976 step=3.50471e-05 V=-1.00151 u1=0.00276944 u2=0.996123 u3=0 Iion=2.96758
DEBUG cell=0 t=0.00350471→0.00353976 step=0.000315424 V=-1.00151 u1=0.00278702 u2=0.996089 u3=0 Iion=2.9676
PIMPLE: iteration 1
DICPCG:  Solving for Vm, Initial residual = 8.73247e-06, Final residual = 7.99448e-16, No Iterations 4
PIMPLE: iteration 2
DICPCG:  Solving for Vm, Initial residual = 8.00167e-16, Final residual = 8.00167e-16, No Iterations 0
ExecutionTime = 0.23 s  ClockTime = 1 s

Time = 0.0035748

DEBUG cell=0 t=0.00353976→0.0035748 step=3.50471e-05 V=-1.00153 u1=0.00278702 u2=0.996089 u3=0 Iion=2.9676
DEBUG cell=0 t=0.00353976→0.0035748 step=0.000315424 V=-1.00153 u1=0.00280461 u2=0.996054 u3=0 Iion=2.96761
PIMPLE: iteration 1
DICPCG:  Solving for Vm, Initial residual = 8.73217e-06, Final residual = 7.9942e-16, No Iterations 4
PIMPLE: iteration 2
DICPCG:  Solving for Vm, Initial residual = 7.99792e-16, Final residual = 7.99792e-16, No Iterations 0
ExecutionTime = 0.23 s  ClockTime = 1 s

Time = 0.00360985

DEBUG cell=0 t=0.0035748→0.00360985 step=3.50471e-05 V=-1.00154 u1=0.00280461 u2=0.996054 u3=0 Iion=2.96761
DEBUG cell=0 t=0.0035748→0.00360985 step=0.000315424 V=-1.00154 u1=0.0028222 u2=0.996019 u3=0 Iion=2.96763
PIMPLE: iteration 1
DICPCG:  Solving for Vm, Initial residual = 8.73186e-06, Final residual = 7.99392e-16, No Iterations 4
PIMPLE: iteration 2
DICPCG:  Solving for Vm, Initial residual = 7.99305e-16, Final residual = 7.99305e-16, No Iterations 0
ExecutionTime = 0.24 s  ClockTime = 1 s

Time = 0.0036449

DEBUG cell=0 t=0.00360985→0.0036449 step=3.50471e-05 V=-1.00156 u1=0.0028222 u2=0.996019 u3=0 Iion=2.96763
DEBUG cell=0 t=0.00360985→0.0036449 step=0.000315424 V=-1.00156 u1=0.00283978 u2=0.995984 u3=0 Iion=2.96765
PIMPLE: iteration 1
DICPCG:  Solving for Vm, Initial residual = 8.73156e-06, Final residual = 7.99364e-16, No Iterations 4
PIMPLE: iteration 2
DICPCG:  Solving for Vm, Initial residual = 7.99749e-16, Final residual = 7.99749e-16, No Iterations 0
ExecutionTime = 0.25 s  ClockTime = 1 s

Time = 0.00367995

DEBUG cell=0 t=0.0036449→0.00367995 step=3.50471e-05 V=-1.00158 u1=0.00283978 u2=0.995984 u3=0 Iion=2.96765
DEBUG cell=0 t=0.0036449→0.00367995 step=0.000315424 V=-1.00158 u1=0.00285737 u2=0.995949 u3=0 Iion=2.96766
PIMPLE: iteration 1
DICPCG:  Solving for Vm, Initial residual = 8.73125e-06, Final residual = 7.99337e-16, No Iterations 4
PIMPLE: iteration 2
DICPCG:  Solving for Vm, Initial residual = 8.00168e-16, Final residual = 8.00168e-16, No Iterations 0
ExecutionTime = 0.25 s  ClockTime = 1 s

Time = 0.00371499

DEBUG cell=0 t=0.00367995→0.00371499 step=3.50471e-05 V=-1.0016 u1=0.00285737 u2=0.995949 u3=0 Iion=2.96766
DEBUG cell=0 t=0.00367995→0.00371499 step=0.000315424 V=-1.0016 u1=0.00287496 u2=0.995915 u3=0 Iion=2.96768
PIMPLE: iteration 1
DICPCG:  Solving for Vm, Initial residual = 8.73095e-06, Final residual = 7.99309e-16, No Iterations 4
PIMPLE: iteration 2
DICPCG:  Solving for Vm, Initial residual = 7.98879e-16, Final residual = 7.98879e-16, No Iterations 0
ExecutionTime = 0.25 s  ClockTime = 1 s

Time = 0.00375004

DEBUG cell=0 t=0.00371499→0.00375004 step=3.50471e-05 V=-1.00161 u1=0.00287496 u2=0.995915 u3=0 Iion=2.96768
DEBUG cell=0 t=0.00371499→0.00375004 step=0.000315424 V=-1.00161 u1=0.00289254 u2=0.99588 u3=0 Iion=2.9677
PIMPLE: iteration 1
DICPCG:  Solving for Vm, Initial residual = 8.73064e-06, Final residual = 7.99281e-16, No Iterations 4
PIMPLE: iteration 2
DICPCG:  Solving for Vm, Initial residual = 7.99238e-16, Final residual = 7.99238e-16, No Iterations 0
ExecutionTime = 0.25 s  ClockTime = 1 s

Time = 0.00378509

DEBUG cell=0 t=0.00375004→0.00378509 step=3.50471e-05 V=-1.00163 u1=0.00289254 u2=0.99588 u3=0 Iion=2.9677
DEBUG cell=0 t=0.00375004→0.00378509 step=0.000315424 V=-1.00163 u1=0.00291013 u2=0.995845 u3=0 Iion=2.96771
PIMPLE: iteration 1
DICPCG:  Solving for Vm, Initial residual = 8.73034e-06, Final residual = 7.99253e-16, No Iterations 4
PIMPLE: iteration 2
DICPCG:  Solving for Vm, Initial residual = 7.99248e-16, Final residual = 7.99248e-16, No Iterations 0
ExecutionTime = 0.26 s  ClockTime = 1 s

Time = 0.00382013

DEBUG cell=0 t=0.00378509→0.00382013 step=3.50471e-05 V=-1.00165 u1=0.00291013 u2=0.995845 u3=0 Iion=2.96771
DEBUG cell=0 t=0.00378509→0.00382013 step=0.000315424 V=-1.00165 u1=0.00292772 u2=0.99581 u3=0 Iion=2.96773
PIMPLE: iteration 1
DICPCG:  Solving for Vm, Initial residual = 8.73004e-06, Final residual = 7.99225e-16, No Iterations 4
PIMPLE: iteration 2
DICPCG:  Solving for Vm, Initial residual = 8.00069e-16, Final residual = 8.00069e-16, No Iterations 0
ExecutionTime = 0.26 s  ClockTime = 1 s

Time = 0.00385518

DEBUG cell=0 t=0.00382013→0.00385518 step=3.50471e-05 V=-1.00167 u1=0.00292772 u2=0.99581 u3=0 Iion=2.96773
DEBUG cell=0 t=0.00382013→0.00385518 step=0.000315424 V=-1.00167 u1=0.00294531 u2=0.995776 u3=0 Iion=2.96775
PIMPLE: iteration 1
DICPCG:  Solving for Vm, Initial residual = 8.72973e-06, Final residual = 7.99197e-16, No Iterations 4
PIMPLE: iteration 2
DICPCG:  Solving for Vm, Initial residual = 8.00214e-16, Final residual = 8.00214e-16, No Iterations 0
ExecutionTime = 0.26 s  ClockTime = 1 s

Time = 0.00389023

DEBUG cell=0 t=0.00385518→0.00389023 step=3.50471e-05 V=-1.00168 u1=0.00294531 u2=0.995776 u3=0 Iion=2.96775
DEBUG cell=0 t=0.00385518→0.00389023 step=0.000315424 V=-1.00168 u1=0.00296289 u2=0.995741 u3=0 Iion=2.96777
PIMPLE: iteration 1
DICPCG:  Solving for Vm, Initial residual = 8.72943e-06, Final residual = 7.99169e-16, No Iterations 4
PIMPLE: iteration 2
DICPCG:  Solving for Vm, Initial residual = 7.99474e-16, Final residual = 7.99474e-16, No Iterations 0
ExecutionTime = 0.26 s  ClockTime = 1 s

Time = 0.00392528

DEBUG cell=0 t=0.00389023→0.00392528 step=3.50471e-05 V=-1.0017 u1=0.00296289 u2=0.995741 u3=0 Iion=2.96777
DEBUG cell=0 t=0.00389023→0.00392528 step=0.000315424 V=-1.0017 u1=0.00298048 u2=0.995706 u3=0 Iion=2.96778
PIMPLE: iteration 1
DICPCG:  Solving for Vm, Initial residual = 8.72912e-06, Final residual = 7.99141e-16, No Iterations 4
PIMPLE: iteration 2
DICPCG:  Solving for Vm, Initial residual = 7.97923e-16, Final residual = 7.97923e-16, No Iterations 0
ExecutionTime = 0.26 s  ClockTime = 1 s

Time = 0.00396032

DEBUG cell=0 t=0.00392528→0.00396032 step=3.50471e-05 V=-1.00172 u1=0.00298048 u2=0.995706 u3=0 Iion=2.96778
DEBUG cell=0 t=0.00392528→0.00396032 step=0.000315424 V=-1.00172 u1=0.00299807 u2=0.995671 u3=0 Iion=2.9678
PIMPLE: iteration 1
DICPCG:  Solving for Vm, Initial residual = 8.72882e-06, Final residual = 7.99113e-16, No Iterations 4
PIMPLE: iteration 2
DICPCG:  Solving for Vm, Initial residual = 7.99316e-16, Final residual = 7.99316e-16, No Iterations 0
ExecutionTime = 0.27 s  ClockTime = 1 s

Time = 0.00399537

DEBUG cell=0 t=0.00396032→0.00399537 step=3.50471e-05 V=-1.00174 u1=0.00299807 u2=0.995671 u3=0 Iion=2.9678
DEBUG cell=0 t=0.00396032→0.00399537 step=0.000315424 V=-1.00174 u1=0.00301566 u2=0.995637 u3=0 Iion=2.96782
PIMPLE: iteration 1
DICPCG:  Solving for Vm, Initial residual = 8.72851e-06, Final residual = 7.99085e-16, No Iterations 4
PIMPLE: iteration 2
DICPCG:  Solving for Vm, Initial residual = 7.99197e-16, Final residual = 7.99197e-16, No Iterations 0
ExecutionTime = 0.27 s  ClockTime = 1 s

Time = 0.00403042

DEBUG cell=0 t=0.00399537→0.00403042 step=3.50471e-05 V=-1.00175 u1=0.00301566 u2=0.995637 u3=0 Iion=2.96782
DEBUG cell=0 t=0.00399537→0.00403042 step=0.000315424 V=-1.00175 u1=0.00303325 u2=0.995602 u3=0 Iion=2.96783
PIMPLE: iteration 1
DICPCG:  Solving for Vm, Initial residual = 8.72821e-06, Final residual = 7.99058e-16, No Iterations 4
PIMPLE: iteration 2
DICPCG:  Solving for Vm, Initial residual = 7.99315e-16, Final residual = 7.99315e-16, No Iterations 0
ExecutionTime = 0.27 s  ClockTime = 1 s

Time = 0.00406546

DEBUG cell=0 t=0.00403042→0.00406546 step=3.50471e-05 V=-1.00177 u1=0.00303325 u2=0.995602 u3=0 Iion=2.96783
DEBUG cell=0 t=0.00403042→0.00406546 step=0.000315424 V=-1.00177 u1=0.00305084 u2=0.995567 u3=0 Iion=2.96785
PIMPLE: iteration 1
DICPCG:  Solving for Vm, Initial residual = 8.7279e-06, Final residual = 7.9903e-16, No Iterations 4
PIMPLE: iteration 2
DICPCG:  Solving for Vm, Initial residual = 7.98917e-16, Final residual = 7.98917e-16, No Iterations 0
ExecutionTime = 0.27 s  ClockTime = 1 s

Time = 0.00410051

DEBUG cell=0 t=0.00406546→0.00410051 step=3.50471e-05 V=-1.00179 u1=0.00305084 u2=0.995567 u3=0 Iion=2.96785
DEBUG cell=0 t=0.00406546→0.00410051 step=0.000315424 V=-1.00179 u1=0.00306843 u2=0.995532 u3=0 Iion=2.96787
PIMPLE: iteration 1
DICPCG:  Solving for Vm, Initial residual = 8.7276e-06, Final residual = 7.99002e-16, No Iterations 4
PIMPLE: iteration 2
DICPCG:  Solving for Vm, Initial residual = 7.98446e-16, Final residual = 7.98446e-16, No Iterations 0
ExecutionTime = 0.28 s  ClockTime = 1 s

Time = 0.00413556

DEBUG cell=0 t=0.00410051→0.00413556 step=3.50471e-05 V=-1.00181 u1=0.00306843 u2=0.995532 u3=0 Iion=2.96787
DEBUG cell=0 t=0.00410051→0.00413556 step=0.000315424 V=-1.00181 u1=0.00308602 u2=0.995498 u3=0 Iion=2.96788
PIMPLE: iteration 1
DICPCG:  Solving for Vm, Initial residual = 8.72729e-06, Final residual = 7.98974e-16, No Iterations 4
PIMPLE: iteration 2
DICPCG:  Solving for Vm, Initial residual = 7.98898e-16, Final residual = 7.98898e-16, No Iterations 0
ExecutionTime = 0.28 s  ClockTime = 1 s

Time = 0.0041706

DEBUG cell=0 t=0.00413556→0.0041706 step=3.50471e-05 V=-1.00182 u1=0.00308602 u2=0.995498 u3=0 Iion=2.96788
DEBUG cell=0 t=0.00413556→0.0041706 step=0.000315424 V=-1.00182 u1=0.00310361 u2=0.995463 u3=0 Iion=2.9679
PIMPLE: iteration 1
DICPCG:  Solving for Vm, Initial residual = 8.72699e-06, Final residual = 7.98946e-16, No Iterations 4
PIMPLE: iteration 2
DICPCG:  Solving for Vm, Initial residual = 7.98744e-16, Final residual = 7.98744e-16, No Iterations 0
ExecutionTime = 0.28 s  ClockTime = 1 s

Time = 0.00420565

DEBUG cell=0 t=0.0041706→0.00420565 step=3.50471e-05 V=-1.00184 u1=0.00310361 u2=0.995463 u3=0 Iion=2.9679
DEBUG cell=0 t=0.0041706→0.00420565 step=0.000315424 V=-1.00184 u1=0.0031212 u2=0.995428 u3=0 Iion=2.96792
PIMPLE: iteration 1
DICPCG:  Solving for Vm, Initial residual = 8.72668e-06, Final residual = 7.98918e-16, No Iterations 4
PIMPLE: iteration 2
DICPCG:  Solving for Vm, Initial residual = 7.99141e-16, Final residual = 7.99141e-16, No Iterations 0
ExecutionTime = 0.28 s  ClockTime = 1 s

Time = 0.0042407

DEBUG cell=0 t=0.00420565→0.0042407 step=3.50471e-05 V=-1.00186 u1=0.0031212 u2=0.995428 u3=0 Iion=2.96792
DEBUG cell=0 t=0.00420565→0.0042407 step=0.000315424 V=-1.00186 u1=0.00313879 u2=0.995393 u3=0 Iion=2.96794
PIMPLE: iteration 1
DICPCG:  Solving for Vm, Initial residual = 8.72638e-06, Final residual = 7.9889e-16, No Iterations 4
PIMPLE: iteration 2
DICPCG:  Solving for Vm, Initial residual = 7.99472e-16, Final residual = 7.99472e-16, No Iterations 0
ExecutionTime = 0.28 s  ClockTime = 1 s

Time = 0.00427575

DEBUG cell=0 t=0.0042407→0.00427575 step=3.50471e-05 V=-1.00188 u1=0.00313879 u2=0.995393 u3=0 Iion=2.96794
DEBUG cell=0 t=0.0042407→0.00427575 step=0.000315424 V=-1.00188 u1=0.00315639 u2=0.995359 u3=0 Iion=2.96795
PIMPLE: iteration 1
DICPCG:  Solving for Vm, Initial residual = 8.72608e-06, Final residual = 7.98862e-16, No Iterations 4
PIMPLE: iteration 2
DICPCG:  Solving for Vm, Initial residual = 7.99455e-16, Final residual = 7.99455e-16, No Iterations 0
ExecutionTime = 0.29 s  ClockTime = 1 s

Time = 0.00431079

DEBUG cell=0 t=0.00427575→0.00431079 step=3.50471e-05 V=-1.00189 u1=0.00315639 u2=0.995359 u3=0 Iion=2.96795
DEBUG cell=0 t=0.00427575→0.00431079 step=0.000315424 V=-1.00189 u1=0.00317398 u2=0.995324 u3=0 Iion=2.96797
PIMPLE: iteration 1
DICPCG:  Solving for Vm, Initial residual = 8.72577e-06, Final residual = 7.98835e-16, No Iterations 4
PIMPLE: iteration 2
DICPCG:  Solving for Vm, Initial residual = 7.99564e-16, Final residual = 7.99564e-16, No Iterations 0
ExecutionTime = 0.29 s  ClockTime = 1 s

Time = 0.00434584

DEBUG cell=0 t=0.00431079→0.00434584 step=3.50471e-05 V=-1.00191 u1=0.00317398 u2=0.995324 u3=0 Iion=2.96797
DEBUG cell=0 t=0.00431079→0.00434584 step=0.000315424 V=-1.00191 u1=0.00319157 u2=0.995289 u3=0 Iion=2.96799
PIMPLE: iteration 1
DICPCG:  Solving for Vm, Initial residual = 8.72547e-06, Final residual = 7.98807e-16, No Iterations 4
PIMPLE: iteration 2
DICPCG:  Solving for Vm, Initial residual = 7.98618e-16, Final residual = 7.98618e-16, No Iterations 0
ExecutionTime = 0.29 s  ClockTime = 1 s

Time = 0.00438089

DEBUG cell=0 t=0.00434584→0.00438089 step=3.50471e-05 V=-1.00193 u1=0.00319157 u2=0.995289 u3=0 Iion=2.96799
DEBUG cell=0 t=0.00434584→0.00438089 step=0.000315424 V=-1.00193 u1=0.00320916 u2=0.995254 u3=0 Iion=2.968
PIMPLE: iteration 1
DICPCG:  Solving for Vm, Initial residual = 8.72516e-06, Final residual = 7.98779e-16, No Iterations 4
PIMPLE: iteration 2
DICPCG:  Solving for Vm, Initial residual = 7.99553e-16, Final residual = 7.99553e-16, No Iterations 0
ExecutionTime = 0.29 s  ClockTime = 1 s

Time = 0.00441593

DEBUG cell=0 t=0.00438089→0.00441593 step=3.50471e-05 V=-1.00195 u1=0.00320916 u2=0.995254 u3=0 Iion=2.968
DEBUG cell=0 t=0.00438089→0.00441593 step=0.000315424 V=-1.00195 u1=0.00322676 u2=0.99522 u3=0 Iion=2.96802
PIMPLE: iteration 1
DICPCG:  Solving for Vm, Initial residual = 8.72486e-06, Final residual = 7.98751e-16, No Iterations 4
PIMPLE: iteration 2
DICPCG:  Solving for Vm, Initial residual = 7.98631e-16, Final residual = 7.98631e-16, No Iterations 0
ExecutionTime = 0.29 s  ClockTime = 1 s

Time = 0.00445098

DEBUG cell=0 t=0.00441593→0.00445098 step=3.50471e-05 V=-1.00196 u1=0.00322676 u2=0.99522 u3=0 Iion=2.96802
DEBUG cell=0 t=0.00441593→0.00445098 step=0.000315424 V=-1.00196 u1=0.00324435 u2=0.995185 u3=0 Iion=2.96804
PIMPLE: iteration 1
DICPCG:  Solving for Vm, Initial residual = 8.72455e-06, Final residual = 7.98723e-16, No Iterations 4
PIMPLE: iteration 2
DICPCG:  Solving for Vm, Initial residual = 7.98683e-16, Final residual = 7.98683e-16, No Iterations 0
ExecutionTime = 0.3 s  ClockTime = 1 s

Time = 0.00448603

DEBUG cell=0 t=0.00445098→0.00448603 step=3.50471e-05 V=-1.00198 u1=0.00324435 u2=0.995185 u3=0 Iion=2.96804
DEBUG cell=0 t=0.00445098→0.00448603 step=0.000315424 V=-1.00198 u1=0.00326194 u2=0.99515 u3=0 Iion=2.96805
PIMPLE: iteration 1
DICPCG:  Solving for Vm, Initial residual = 8.72425e-06, Final residual = 7.98695e-16, No Iterations 4
PIMPLE: iteration 2
DICPCG:  Solving for Vm, Initial residual = 7.99534e-16, Final residual = 7.99534e-16, No Iterations 0
ExecutionTime = 0.3 s  ClockTime = 1 s

Time = 0.00452108

DEBUG cell=0 t=0.00448603→0.00452108 step=3.50471e-05 V=-1.002 u1=0.00326194 u2=0.99515 u3=0 Iion=2.96805
DEBUG cell=0 t=0.00448603→0.00452108 step=0.000315424 V=-1.002 u1=0.00327954 u2=0.995116 u3=0 Iion=2.96807
PIMPLE: iteration 1
DICPCG:  Solving for Vm, Initial residual = 8.72395e-06, Final residual = 7.98667e-16, No Iterations 4
PIMPLE: iteration 2
DICPCG:  Solving for Vm, Initial residual = 7.98868e-16, Final residual = 7.98868e-16, No Iterations 0
ExecutionTime = 0.3 s  ClockTime = 1 s

Time = 0.00455612

DEBUG cell=0 t=0.00452108→0.00455612 step=3.50471e-05 V=-1.00202 u1=0.00327954 u2=0.995116 u3=0 Iion=2.96807
DEBUG cell=0 t=0.00452108→0.00455612 step=0.000315424 V=-1.00202 u1=0.00329713 u2=0.995081 u3=0 Iion=2.96809
PIMPLE: iteration 1
DICPCG:  Solving for Vm, Initial residual = 8.72364e-06, Final residual = 7.9864e-16, No Iterations 4
PIMPLE: iteration 2
DICPCG:  Solving for Vm, Initial residual = 7.98474e-16, Final residual = 7.98474e-16, No Iterations 0
ExecutionTime = 0.3 s  ClockTime = 1 s

Time = 0.00459117

DEBUG cell=0 t=0.00455612→0.00459117 step=3.50471e-05 V=-1.00203 u1=0.00329713 u2=0.995081 u3=0 Iion=2.96809
DEBUG cell=0 t=0.00455612→0.00459117 step=0.000315424 V=-1.00203 u1=0.00331473 u2=0.995046 u3=0 Iion=2.96811
PIMPLE: iteration 1
DICPCG:  Solving for Vm, Initial residual = 8.72334e-06, Final residual = 7.98612e-16, No Iterations 4
PIMPLE: iteration 2
DICPCG:  Solving for Vm, Initial residual = 7.98697e-16, Final residual = 7.98697e-16, No Iterations 0
ExecutionTime = 0.31 s  ClockTime = 1 s

Time = 0.00462622

DEBUG cell=0 t=0.00459117→0.00462622 step=3.50471e-05 V=-1.00205 u1=0.00331473 u2=0.995046 u3=0 Iion=2.96811
DEBUG cell=0 t=0.00459117→0.00462622 step=0.000315424 V=-1.00205 u1=0.00333232 u2=0.995011 u3=0 Iion=2.96812
PIMPLE: iteration 1
DICPCG:  Solving for Vm, Initial residual = 8.72303e-06, Final residual = 7.98584e-16, No Iterations 4
PIMPLE: iteration 2
DICPCG:  Solving for Vm, Initial residual = 7.99342e-16, Final residual = 7.99342e-16, No Iterations 0
ExecutionTime = 0.31 s  ClockTime = 1 s

Time = 0.00466126

DEBUG cell=0 t=0.00462622→0.00466126 step=3.50471e-05 V=-1.00207 u1=0.00333232 u2=0.995011 u3=0 Iion=2.96812
DEBUG cell=0 t=0.00462622→0.00466126 step=0.000315424 V=-1.00207 u1=0.00334992 u2=0.994977 u3=0 Iion=2.96814
PIMPLE: iteration 1
DICPCG:  Solving for Vm, Initial residual = 8.72273e-06, Final residual = 7.98556e-16, No Iterations 4
PIMPLE: iteration 2
DICPCG:  Solving for Vm, Initial residual = 7.98063e-16, Final residual = 7.98063e-16, No Iterations 0
ExecutionTime = 0.31 s  ClockTime = 1 s

Time = 0.00469631

DEBUG cell=0 t=0.00466126→0.00469631 step=3.50471e-05 V=-1.00209 u1=0.00334992 u2=0.994977 u3=0 Iion=2.96814
DEBUG cell=0 t=0.00466126→0.00469631 step=0.000315424 V=-1.00209 u1=0.00336751 u2=0.994942 u3=0 Iion=2.96816
PIMPLE: iteration 1
DICPCG:  Solving for Vm, Initial residual = 8.72242e-06, Final residual = 7.98528e-16, No Iterations 4
PIMPLE: iteration 2
DICPCG:  Solving for Vm, Initial residual = 7.98812e-16, Final residual = 7.98812e-16, No Iterations 0
ExecutionTime = 0.31 s  ClockTime = 1 s

Time = 0.00473136

DEBUG cell=0 t=0.00469631→0.00473136 step=3.50471e-05 V=-1.0021 u1=0.00336751 u2=0.994942 u3=0 Iion=2.96816
DEBUG cell=0 t=0.00469631→0.00473136 step=0.000315424 V=-1.0021 u1=0.00338511 u2=0.994907 u3=0 Iion=2.96817
PIMPLE: iteration 1
DICPCG:  Solving for Vm, Initial residual = 8.72212e-06, Final residual = 7.985e-16, No Iterations 4
PIMPLE: iteration 2
DICPCG:  Solving for Vm, Initial residual = 7.98218e-16, Final residual = 7.98218e-16, No Iterations 0
ExecutionTime = 0.31 s  ClockTime = 1 s

Time = 0.00476641

DEBUG cell=0 t=0.00473136→0.00476641 step=3.50471e-05 V=-1.00212 u1=0.00338511 u2=0.994907 u3=0 Iion=2.96817
DEBUG cell=0 t=0.00473136→0.00476641 step=0.000315424 V=-1.00212 u1=0.0034027 u2=0.994873 u3=0 Iion=2.96819
PIMPLE: iteration 1
DICPCG:  Solving for Vm, Initial residual = 8.72182e-06, Final residual = 7.98472e-16, No Iterations 4
PIMPLE: iteration 2
DICPCG:  Solving for Vm, Initial residual = 7.98479e-16, Final residual = 7.98479e-16, No Iterations 0
ExecutionTime = 0.32 s  ClockTime = 1 s

Time = 0.00480145

DEBUG cell=0 t=0.00476641→0.00480145 step=3.50471e-05 V=-1.00214 u1=0.0034027 u2=0.994873 u3=0 Iion=2.96819
DEBUG cell=0 t=0.00476641→0.00480145 step=0.000315424 V=-1.00214 u1=0.0034203 u2=0.994838 u3=0 Iion=2.96821
PIMPLE: iteration 1
DICPCG:  Solving for Vm, Initial residual = 8.72151e-06, Final residual = 7.98445e-16, No Iterations 4
PIMPLE: iteration 2
DICPCG:  Solving for Vm, Initial residual = 7.98842e-16, Final residual = 7.98842e-16, No Iterations 0
ExecutionTime = 0.32 s  ClockTime = 1 s

Time = 0.0048365

DEBUG cell=0 t=0.00480145→0.0048365 step=3.50471e-05 V=-1.00216 u1=0.0034203 u2=0.994838 u3=0 Iion=2.96821
DEBUG cell=0 t=0.00480145→0.0048365 step=0.000315424 V=-1.00216 u1=0.00343789 u2=0.994803 u3=0 Iion=2.96822
PIMPLE: iteration 1
DICPCG:  Solving for Vm, Initial residual = 8.72121e-06, Final residual = 7.98417e-16, No Iterations 4
PIMPLE: iteration 2
DICPCG:  Solving for Vm, Initial residual = 7.97764e-16, Final residual = 7.97764e-16, No Iterations 0
ExecutionTime = 0.32 s  ClockTime = 1 s

Time = 0.00487155

DEBUG cell=0 t=0.0048365→0.00487155 step=3.50471e-05 V=-1.00217 u1=0.00343789 u2=0.994803 u3=0 Iion=2.96822
DEBUG cell=0 t=0.0048365→0.00487155 step=0.000315424 V=-1.00217 u1=0.00345549 u2=0.994768 u3=0 Iion=2.96824
PIMPLE: iteration 1
DICPCG:  Solving for Vm, Initial residual = 8.7209e-06, Final residual = 7.98389e-16, No Iterations 4
PIMPLE: iteration 2
DICPCG:  Solving for Vm, Initial residual = 7.98026e-16, Final residual = 7.98026e-16, No Iterations 0
ExecutionTime = 0.32 s  ClockTime = 1 s

Time = 0.00490659

DEBUG cell=0 t=0.00487155→0.00490659 step=3.50471e-05 V=-1.00219 u1=0.00345549 u2=0.994768 u3=0 Iion=2.96824
DEBUG cell=0 t=0.00487155→0.00490659 step=0.000315424 V=-1.00219 u1=0.00347309 u2=0.994734 u3=0 Iion=2.96826
PIMPLE: iteration 1
DICPCG:  Solving for Vm, Initial residual = 8.7206e-06, Final residual = 7.98361e-16, No Iterations 4
PIMPLE: iteration 2
DICPCG:  Solving for Vm, Initial residual = 7.97285e-16, Final residual = 7.97285e-16, No Iterations 0
ExecutionTime = 0.32 s  ClockTime = 1 s

Time = 0.00494164

DEBUG cell=0 t=0.00490659→0.00494164 step=3.50471e-05 V=-1.00221 u1=0.00347309 u2=0.994734 u3=0 Iion=2.96826
DEBUG cell=0 t=0.00490659→0.00494164 step=0.000315424 V=-1.00221 u1=0.00349069 u2=0.994699 u3=0 Iion=2.96828
PIMPLE: iteration 1
DICPCG:  Solving for Vm, Initial residual = 8.72029e-06, Final residual = 7.98333e-16, No Iterations 4
PIMPLE: iteration 2
DICPCG:  Solving for Vm, Initial residual = 7.98716e-16, Final residual = 7.98716e-16, No Iterations 0
ExecutionTime = 0.33 s  ClockTime = 1 s

Time = 0.00497669

DEBUG cell=0 t=0.00494164→0.00497669 step=3.50471e-05 V=-1.00223 u1=0.00349069 u2=0.994699 u3=0 Iion=2.96828
DEBUG cell=0 t=0.00494164→0.00497669 step=0.000315424 V=-1.00223 u1=0.00350828 u2=0.994664 u3=0 Iion=2.96829
PIMPLE: iteration 1
DICPCG:  Solving for Vm, Initial residual = 8.71999e-06, Final residual = 7.98305e-16, No Iterations 4
PIMPLE: iteration 2
DICPCG:  Solving for Vm, Initial residual = 7.99283e-16, Final residual = 7.99283e-16, No Iterations 0
ExecutionTime = 0.33 s  ClockTime = 1 s

Time = 0.00501174

DEBUG cell=0 t=0.00497669→0.00501174 step=3.50471e-05 V=-1.00224 u1=0.00350828 u2=0.994664 u3=0 Iion=2.96829
DEBUG cell=0 t=0.00497669→0.00501174 step=0.000315424 V=-1.00224 u1=0.00352588 u2=0.99463 u3=0 Iion=2.96831
PIMPLE: iteration 1
DICPCG:  Solving for Vm, Initial residual = 8.71969e-06, Final residual = 7.98278e-16, No Iterations 4
PIMPLE: iteration 2
DICPCG:  Solving for Vm, Initial residual = 7.97067e-16, Final residual = 7.97067e-16, No Iterations 0
ExecutionTime = 0.33 s  ClockTime = 1 s

Time = 0.00504678

DEBUG cell=0 t=0.00501174→0.00504678 step=3.50471e-05 V=-1.00226 u1=0.00352588 u2=0.99463 u3=0 Iion=2.96831
DEBUG cell=0 t=0.00501174→0.00504678 step=0.000315424 V=-1.00226 u1=0.00354348 u2=0.994595 u3=0 Iion=2.96833
PIMPLE: iteration 1
DICPCG:  Solving for Vm, Initial residual = 8.71938e-06, Final residual = 7.9825e-16, No Iterations 4
PIMPLE: iteration 2
DICPCG:  Solving for Vm, Initial residual = 7.98141e-16, Final residual = 7.98141e-16, No Iterations 0
ExecutionTime = 0.33 s  ClockTime = 1 s

Time = 0.00508183

DEBUG cell=0 t=0.00504678→0.00508183 step=3.50471e-05 V=-1.00228 u1=0.00354348 u2=0.994595 u3=0 Iion=2.96833
DEBUG cell=0 t=0.00504678→0.00508183 step=0.000315424 V=-1.00228 u1=0.00356108 u2=0.99456 u3=0 Iion=2.96834
PIMPLE: iteration 1
DICPCG:  Solving for Vm, Initial residual = 8.71908e-06, Final residual = 7.98222e-16, No Iterations 4
PIMPLE: iteration 2
DICPCG:  Solving for Vm, Initial residual = 7.97886e-16, Final residual = 7.97886e-16, No Iterations 0
ExecutionTime = 0.34 s  ClockTime = 1 s

Time = 0.00511688

DEBUG cell=0 t=0.00508183→0.00511688 step=3.50471e-05 V=-1.0023 u1=0.00356108 u2=0.99456 u3=0 Iion=2.96834
DEBUG cell=0 t=0.00508183→0.00511688 step=0.000315424 V=-1.0023 u1=0.00357868 u2=0.994526 u3=0 Iion=2.96836
PIMPLE: iteration 1
DICPCG:  Solving for Vm, Initial residual = 8.71877e-06, Final residual = 7.98194e-16, No Iterations 4
PIMPLE: iteration 2
DICPCG:  Solving for Vm, Initial residual = 7.98001e-16, Final residual = 7.98001e-16, No Iterations 0
ExecutionTime = 0.34 s  ClockTime = 1 s

Time = 0.00515192

DEBUG cell=0 t=0.00511688→0.00515192 step=3.50471e-05 V=-1.00231 u1=0.00357868 u2=0.994526 u3=0 Iion=2.96836
DEBUG cell=0 t=0.00511688→0.00515192 step=0.000315424 V=-1.00231 u1=0.00359628 u2=0.994491 u3=0 Iion=2.96838
PIMPLE: iteration 1
DICPCG:  Solving for Vm, Initial residual = 8.71847e-06, Final residual = 7.98166e-16, No Iterations 4
PIMPLE: iteration 2
DICPCG:  Solving for Vm, Initial residual = 7.97251e-16, Final residual = 7.97251e-16, No Iterations 0
ExecutionTime = 0.34 s  ClockTime = 1 s

Time = 0.00518697

DEBUG cell=0 t=0.00515192→0.00518697 step=3.50471e-05 V=-1.00233 u1=0.00359628 u2=0.994491 u3=0 Iion=2.96838
DEBUG cell=0 t=0.00515192→0.00518697 step=0.000315424 V=-1.00233 u1=0.00361388 u2=0.994456 u3=0 Iion=2.96839
PIMPLE: iteration 1
DICPCG:  Solving for Vm, Initial residual = 8.71817e-06, Final residual = 7.98138e-16, No Iterations 4
PIMPLE: iteration 2
DICPCG:  Solving for Vm, Initial residual = 7.97591e-16, Final residual = 7.97591e-16, No Iterations 0
ExecutionTime = 0.34 s  ClockTime = 1 s

Time = 0.00522202

DEBUG cell=0 t=0.00518697→0.00522202 step=3.50471e-05 V=-1.00235 u1=0.00361388 u2=0.994456 u3=0 Iion=2.96839
[...]
DEBUG cell=0 t=0.198682→0.198717 step=0.000315424 V=-1.0946 u1=0.105046 u2=0.833904 u3=0 Iion=3.06585
PIMPLE: iteration 1
DICPCG:  Solving for Vm, Initial residual = 7.31094e-06, Final residual = 6.69311e-16, No Iterations 4
PIMPLE: iteration 2
DICPCG:  Solving for Vm, Initial residual = 6.71595e-16, Final residual = 6.71595e-16, No Iterations 0
ExecutionTime = 12.78 s  ClockTime = 13 s

Time = 0.198752

DEBUG cell=0 t=0.198717→0.198752 step=3.50471e-05 V=-1.09461 u1=0.105046 u2=0.833904 u3=0 Iion=3.06585
DEBUG cell=0 t=0.198717→0.198752 step=0.000315424 V=-1.09461 u1=0.105065 u2=0.833879 u3=0 Iion=3.06587
PIMPLE: iteration 1
DICPCG:  Solving for Vm, Initial residual = 7.31073e-06, Final residual = 6.69291e-16, No Iterations 4
PIMPLE: iteration 2
DICPCG:  Solving for Vm, Initial residual = 6.69236e-16, Final residual = 6.69236e-16, No Iterations 0
ExecutionTime = 12.79 s  ClockTime = 13 s

Time = 0.198787

DEBUG cell=0 t=0.198752→0.198787 step=3.50471e-05 V=-1.09463 u1=0.105065 u2=0.833879 u3=0 Iion=3.06587
DEBUG cell=0 t=0.198752→0.198787 step=0.000315424 V=-1.09463 u1=0.105084 u2=0.833855 u3=0 Iion=3.06589
PIMPLE: iteration 1
DICPCG:  Solving for Vm, Initial residual = 7.31052e-06, Final residual = 6.69272e-16, No Iterations 4
PIMPLE: iteration 2
DICPCG:  Solving for Vm, Initial residual = 6.68989e-16, Final residual = 6.68989e-16, No Iterations 0
ExecutionTime = 12.79 s  ClockTime = 13 s

Time = 0.198822

DEBUG cell=0 t=0.198787→0.198822 step=3.50471e-05 V=-1.09465 u1=0.105084 u2=0.833855 u3=0 Iion=3.06589
DEBUG cell=0 t=0.198787→0.198822 step=0.000315424 V=-1.09465 u1=0.105103 u2=0.83383 u3=0 Iion=3.06591
PIMPLE: iteration 1
DICPCG:  Solving for Vm, Initial residual = 7.3103e-06, Final residual = 6.69252e-16, No Iterations 4
PIMPLE: iteration 2
DICPCG:  Solving for Vm, Initial residual = 6.70304e-16, Final residual = 6.70304e-16, No Iterations 0
ExecutionTime = 12.79 s  ClockTime = 13 s

Time = 0.198857

DEBUG cell=0 t=0.198822→0.198857 step=3.50471e-05 V=-1.09466 u1=0.105103 u2=0.83383 u3=0 Iion=3.06591
DEBUG cell=0 t=0.198822→0.198857 step=0.000315424 V=-1.09466 u1=0.105123 u2=0.833806 u3=0 Iion=3.06592
PIMPLE: iteration 1
DICPCG:  Solving for Vm, Initial residual = 7.31009e-06, Final residual = 6.69233e-16, No Iterations 4
PIMPLE: iteration 2
DICPCG:  Solving for Vm, Initial residual = 6.70616e-16, Final residual = 6.70616e-16, No Iterations 0
ExecutionTime = 12.79 s  ClockTime = 13 s

Time = 0.198892

DEBUG cell=0 t=0.198857→0.198892 step=3.50471e-05 V=-1.09468 u1=0.105123 u2=0.833806 u3=0 Iion=3.06592
DEBUG cell=0 t=0.198857→0.198892 step=0.000315424 V=-1.09468 u1=0.105142 u2=0.833782 u3=0 Iion=3.06594
PIMPLE: iteration 1
DICPCG:  Solving for Vm, Initial residual = 7.30988e-06, Final residual = 6.69213e-16, No Iterations 4
PIMPLE: iteration 2
DICPCG:  Solving for Vm, Initial residual = 6.70617e-16, Final residual = 6.70617e-16, No Iterations 0
ExecutionTime = 12.79 s  ClockTime = 13 s

Time = 0.198927

DEBUG cell=0 t=0.198892→0.198927 step=3.50471e-05 V=-1.09469 u1=0.105142 u2=0.833782 u3=0 Iion=3.06594
DEBUG cell=0 t=0.198892→0.198927 step=0.000315424 V=-1.09469 u1=0.105161 u2=0.833757 u3=0 Iion=3.06596
PIMPLE: iteration 1
DICPCG:  Solving for Vm, Initial residual = 7.30966e-06, Final residual = 6.69193e-16, No Iterations 4
PIMPLE: iteration 2
DICPCG:  Solving for Vm, Initial residual = 6.69496e-16, Final residual = 6.69496e-16, No Iterations 0
ExecutionTime = 12.8 s  ClockTime = 13 s

Time = 0.198962

DEBUG cell=0 t=0.198927→0.198962 step=3.50471e-05 V=-1.09471 u1=0.105161 u2=0.833757 u3=0 Iion=3.06596
DEBUG cell=0 t=0.198927→0.198962 step=0.000315424 V=-1.09471 u1=0.10518 u2=0.833733 u3=0 Iion=3.06598
PIMPLE: iteration 1
DICPCG:  Solving for Vm, Initial residual = 7.30945e-06, Final residual = 6.69174e-16, No Iterations 4
PIMPLE: iteration 2
DICPCG:  Solving for Vm, Initial residual = 6.69957e-16, Final residual = 6.69957e-16, No Iterations 0
ExecutionTime = 12.8 s  ClockTime = 13 s

Time = 0.198997

DEBUG cell=0 t=0.198962→0.198997 step=3.50471e-05 V=-1.09473 u1=0.10518 u2=0.833733 u3=0 Iion=3.06598
DEBUG cell=0 t=0.198962→0.198997 step=0.000315424 V=-1.09473 u1=0.105199 u2=0.833709 u3=0 Iion=3.066
PIMPLE: iteration 1
DICPCG:  Solving for Vm, Initial residual = 7.30924e-06, Final residual = 6.69154e-16, No Iterations 4
PIMPLE: iteration 2
DICPCG:  Solving for Vm, Initial residual = 6.6731e-16, Final residual = 6.6731e-16, No Iterations 0
ExecutionTime = 12.8 s  ClockTime = 13 s

Time = 0.199032

DEBUG cell=0 t=0.198997→0.199032 step=3.50471e-05 V=-1.09474 u1=0.105199 u2=0.833709 u3=0 Iion=3.066
DEBUG cell=0 t=0.198997→0.199032 step=0.000315424 V=-1.09474 u1=0.105218 u2=0.833684 u3=0 Iion=3.06601
PIMPLE: iteration 1
DICPCG:  Solving for Vm, Initial residual = 7.30902e-06, Final residual = 6.69135e-16, No Iterations 4
PIMPLE: iteration 2
DICPCG:  Solving for Vm, Initial residual = 6.70446e-16, Final residual = 6.70446e-16, No Iterations 0
ExecutionTime = 12.8 s  ClockTime = 13 s

Time = 0.199068

DEBUG cell=0 t=0.199032→0.199068 step=3.50471e-05 V=-1.09476 u1=0.105218 u2=0.833684 u3=0 Iion=3.06601
DEBUG cell=0 t=0.199032→0.199068 step=0.000315424 V=-1.09476 u1=0.105237 u2=0.83366 u3=0 Iion=3.06603
PIMPLE: iteration 1
DICPCG:  Solving for Vm, Initial residual = 7.30881e-06, Final residual = 6.69115e-16, No Iterations 4
PIMPLE: iteration 2
DICPCG:  Solving for Vm, Initial residual = 6.68705e-16, Final residual = 6.68705e-16, No Iterations 0
ExecutionTime = 12.81 s  ClockTime = 13 s

Time = 0.199103

DEBUG cell=0 t=0.199068→0.199103 step=3.50471e-05 V=-1.09477 u1=0.105237 u2=0.83366 u3=0 Iion=3.06603
DEBUG cell=0 t=0.199068→0.199103 step=0.000315424 V=-1.09477 u1=0.105256 u2=0.833636 u3=0 Iion=3.06605
PIMPLE: iteration 1
DICPCG:  Solving for Vm, Initial residual = 7.30859e-06, Final residual = 6.69096e-16, No Iterations 4
PIMPLE: iteration 2
DICPCG:  Solving for Vm, Initial residual = 6.70071e-16, Final residual = 6.70071e-16, No Iterations 0
ExecutionTime = 12.81 s  ClockTime = 13 s

Time = 0.199138

DEBUG cell=0 t=0.199103→0.199138 step=3.50471e-05 V=-1.09479 u1=0.105256 u2=0.833636 u3=0 Iion=3.06605
DEBUG cell=0 t=0.199103→0.199138 step=0.000315424 V=-1.09479 u1=0.105275 u2=0.833611 u3=0 Iion=3.06607
PIMPLE: iteration 1
DICPCG:  Solving for Vm, Initial residual = 7.30838e-06, Final residual = 6.69076e-16, No Iterations 4
PIMPLE: iteration 2
DICPCG:  Solving for Vm, Initial residual = 6.69937e-16, Final residual = 6.69937e-16, No Iterations 0
ExecutionTime = 12.81 s  ClockTime = 13 s

Time = 0.199173

DEBUG cell=0 t=0.199138→0.199173 step=3.50471e-05 V=-1.09481 u1=0.105275 u2=0.833611 u3=0 Iion=3.06607
DEBUG cell=0 t=0.199138→0.199173 step=0.000315424 V=-1.09481 u1=0.105294 u2=0.833587 u3=0 Iion=3.06609
PIMPLE: iteration 1
DICPCG:  Solving for Vm, Initial residual = 7.30817e-06, Final residual = 6.69057e-16, No Iterations 4
PIMPLE: iteration 2
DICPCG:  Solving for Vm, Initial residual = 6.69584e-16, Final residual = 6.69584e-16, No Iterations 0
ExecutionTime = 12.81 s  ClockTime = 13 s

Time = 0.199208

DEBUG cell=0 t=0.199173→0.199208 step=3.50471e-05 V=-1.09482 u1=0.105294 u2=0.833587 u3=0 Iion=3.06609
DEBUG cell=0 t=0.199173→0.199208 step=0.000315424 V=-1.09482 u1=0.105313 u2=0.833562 u3=0 Iion=3.0661
PIMPLE: iteration 1
DICPCG:  Solving for Vm, Initial residual = 7.30795e-06, Final residual = 6.69037e-16, No Iterations 4
PIMPLE: iteration 2
DICPCG:  Solving for Vm, Initial residual = 6.68389e-16, Final residual = 6.68389e-16, No Iterations 0
ExecutionTime = 12.81 s  ClockTime = 13 s

Time = 0.199243

DEBUG cell=0 t=0.199208→0.199243 step=3.50471e-05 V=-1.09484 u1=0.105313 u2=0.833562 u3=0 Iion=3.0661
DEBUG cell=0 t=0.199208→0.199243 step=0.000315424 V=-1.09484 u1=0.105332 u2=0.833538 u3=0 Iion=3.06612
PIMPLE: iteration 1
DICPCG:  Solving for Vm, Initial residual = 7.30774e-06, Final residual = 6.69017e-16, No Iterations 4
PIMPLE: iteration 2
DICPCG:  Solving for Vm, Initial residual = 6.69729e-16, Final residual = 6.69729e-16, No Iterations 0
ExecutionTime = 12.82 s  ClockTime = 13 s

Time = 0.199278

DEBUG cell=0 t=0.199243→0.199278 step=3.50471e-05 V=-1.09485 u1=0.105332 u2=0.833538 u3=0 Iion=3.06612
DEBUG cell=0 t=0.199243→0.199278 step=0.000315424 V=-1.09485 u1=0.105351 u2=0.833514 u3=0 Iion=3.06614
PIMPLE: iteration 1
DICPCG:  Solving for Vm, Initial residual = 7.30753e-06, Final residual = 6.68998e-16, No Iterations 4
PIMPLE: iteration 2
DICPCG:  Solving for Vm, Initial residual = 6.68663e-16, Final residual = 6.68663e-16, No Iterations 0
ExecutionTime = 12.82 s  ClockTime = 13 s

Time = 0.199313

DEBUG cell=0 t=0.199278→0.199313 step=3.50471e-05 V=-1.09487 u1=0.105351 u2=0.833514 u3=0 Iion=3.06614
DEBUG cell=0 t=0.199278→0.199313 step=0.000315424 V=-1.09487 u1=0.105371 u2=0.833489 u3=0 Iion=3.06616
PIMPLE: iteration 1
DICPCG:  Solving for Vm, Initial residual = 7.30731e-06, Final residual = 6.68978e-16, No Iterations 4
PIMPLE: iteration 2
DICPCG:  Solving for Vm, Initial residual = 6.70798e-16, Final residual = 6.70798e-16, No Iterations 0
ExecutionTime = 12.82 s  ClockTime = 13 s

Time = 0.199348

DEBUG cell=0 t=0.199313→0.199348 step=3.50471e-05 V=-1.09489 u1=0.105371 u2=0.833489 u3=0 Iion=3.06616
DEBUG cell=0 t=0.199313→0.199348 step=0.000315424 V=-1.09489 u1=0.10539 u2=0.833465 u3=0 Iion=3.06618
PIMPLE: iteration 1
DICPCG:  Solving for Vm, Initial residual = 7.3071e-06, Final residual = 6.68959e-16, No Iterations 4
PIMPLE: iteration 2
DICPCG:  Solving for Vm, Initial residual = 6.69125e-16, Final residual = 6.69125e-16, No Iterations 0
ExecutionTime = 12.82 s  ClockTime = 13 s

Time = 0.199383

DEBUG cell=0 t=0.199348→0.199383 step=3.50471e-05 V=-1.0949 u1=0.10539 u2=0.833465 u3=0 Iion=3.06618
DEBUG cell=0 t=0.199348→0.199383 step=0.000315424 V=-1.0949 u1=0.105409 u2=0.833441 u3=0 Iion=3.0662
PIMPLE: iteration 1
DICPCG:  Solving for Vm, Initial residual = 7.30689e-06, Final residual = 6.68939e-16, No Iterations 4
PIMPLE: iteration 2
DICPCG:  Solving for Vm, Initial residual = 6.69216e-16, Final residual = 6.69216e-16, No Iterations 0
ExecutionTime = 12.83 s  ClockTime = 13 s

Time = 0.199418

DEBUG cell=0 t=0.199383→0.199418 step=3.50471e-05 V=-1.09492 u1=0.105409 u2=0.833441 u3=0 Iion=3.0662
DEBUG cell=0 t=0.199383→0.199418 step=0.000315424 V=-1.09492 u1=0.105428 u2=0.833416 u3=0 Iion=3.06621
PIMPLE: iteration 1
DICPCG:  Solving for Vm, Initial residual = 7.30667e-06, Final residual = 6.6892e-16, No Iterations 4
PIMPLE: iteration 2
DICPCG:  Solving for Vm, Initial residual = 6.68733e-16, Final residual = 6.68733e-16, No Iterations 0
ExecutionTime = 12.83 s  ClockTime = 13 s

Time = 0.199453

DEBUG cell=0 t=0.199418→0.199453 step=3.50471e-05 V=-1.09493 u1=0.105428 u2=0.833416 u3=0 Iion=3.06621
DEBUG cell=0 t=0.199418→0.199453 step=0.000315424 V=-1.09493 u1=0.105447 u2=0.833392 u3=0 Iion=3.06623
PIMPLE: iteration 1
DICPCG:  Solving for Vm, Initial residual = 7.30646e-06, Final residual = 6.689e-16, No Iterations 4
PIMPLE: iteration 2
DICPCG:  Solving for Vm, Initial residual = 6.68664e-16, Final residual = 6.68664e-16, No Iterations 0
ExecutionTime = 12.83 s  ClockTime = 13 s

Time = 0.199488

DEBUG cell=0 t=0.199453→0.199488 step=3.50471e-05 V=-1.09495 u1=0.105447 u2=0.833392 u3=0 Iion=3.06623
DEBUG cell=0 t=0.199453→0.199488 step=0.000315424 V=-1.09495 u1=0.105466 u2=0.833368 u3=0 Iion=3.06625
PIMPLE: iteration 1
DICPCG:  Solving for Vm, Initial residual = 7.30625e-06, Final residual = 6.68881e-16, No Iterations 4
PIMPLE: iteration 2
DICPCG:  Solving for Vm, Initial residual = 6.69783e-16, Final residual = 6.69783e-16, No Iterations 0
ExecutionTime = 12.83 s  ClockTime = 13 s

Time = 0.199523

DEBUG cell=0 t=0.199488→0.199523 step=3.50471e-05 V=-1.09497 u1=0.105466 u2=0.833368 u3=0 Iion=3.06625
DEBUG cell=0 t=0.199488→0.199523 step=0.000315424 V=-1.09497 u1=0.105485 u2=0.833343 u3=0 Iion=3.06627
PIMPLE: iteration 1
DICPCG:  Solving for Vm, Initial residual = 7.30603e-06, Final residual = 6.68861e-16, No Iterations 4
PIMPLE: iteration 2
DICPCG:  Solving for Vm, Initial residual = 6.6921e-16, Final residual = 6.6921e-16, No Iterations 0
ExecutionTime = 12.83 s  ClockTime = 13 s

Time = 0.199558

DEBUG cell=0 t=0.199523→0.199558 step=3.50471e-05 V=-1.09498 u1=0.105485 u2=0.833343 u3=0 Iion=3.06627
DEBUG cell=0 t=0.199523→0.199558 step=0.000315424 V=-1.09498 u1=0.105504 u2=0.833319 u3=0 Iion=3.06629
PIMPLE: iteration 1
DICPCG:  Solving for Vm, Initial residual = 7.30582e-06, Final residual = 6.68842e-16, No Iterations 4
PIMPLE: iteration 2
DICPCG:  Solving for Vm, Initial residual = 6.68996e-16, Final residual = 6.68996e-16, No Iterations 0
ExecutionTime = 12.84 s  ClockTime = 13 s

Time = 0.199593

DEBUG cell=0 t=0.199558→0.199593 step=3.50471e-05 V=-1.095 u1=0.105504 u2=0.833319 u3=0 Iion=3.06629
DEBUG cell=0 t=0.199558→0.199593 step=0.000315424 V=-1.095 u1=0.105523 u2=0.833295 u3=0 Iion=3.0663
PIMPLE: iteration 1
DICPCG:  Solving for Vm, Initial residual = 7.30561e-06, Final residual = 6.68822e-16, No Iterations 4
PIMPLE: iteration 2
DICPCG:  Solving for Vm, Initial residual = 6.69837e-16, Final residual = 6.69837e-16, No Iterations 0
ExecutionTime = 12.84 s  ClockTime = 13 s

Time = 0.199628

DEBUG cell=0 t=0.199593→0.199628 step=3.50471e-05 V=-1.09501 u1=0.105523 u2=0.833295 u3=0 Iion=3.0663
DEBUG cell=0 t=0.199593→0.199628 step=0.000315424 V=-1.09501 u1=0.105542 u2=0.83327 u3=0 Iion=3.06632
PIMPLE: iteration 1
DICPCG:  Solving for Vm, Initial residual = 7.30539e-06, Final residual = 6.68803e-16, No Iterations 4
PIMPLE: iteration 2
DICPCG:  Solving for Vm, Initial residual = 6.68567e-16, Final residual = 6.68567e-16, No Iterations 0
ExecutionTime = 12.84 s  ClockTime = 13 s

Time = 0.199663

DEBUG cell=0 t=0.199628→0.199663 step=3.50471e-05 V=-1.09503 u1=0.105542 u2=0.83327 u3=0 Iion=3.06632
DEBUG cell=0 t=0.199628→0.199663 step=0.000315424 V=-1.09503 u1=0.105561 u2=0.833246 u3=0 Iion=3.06634
PIMPLE: iteration 1
DICPCG:  Solving for Vm, Initial residual = 7.30518e-06, Final residual = 6.68783e-16, No Iterations 4
PIMPLE: iteration 2
DICPCG:  Solving for Vm, Initial residual = 6.69623e-16, Final residual = 6.69623e-16, No Iterations 0
ExecutionTime = 12.84 s  ClockTime = 13 s

Time = 0.199698

DEBUG cell=0 t=0.199663→0.199698 step=3.50471e-05 V=-1.09505 u1=0.105561 u2=0.833246 u3=0 Iion=3.06634
DEBUG cell=0 t=0.199663→0.199698 step=0.000315424 V=-1.09505 u1=0.10558 u2=0.833222 u3=0 Iion=3.06636
PIMPLE: iteration 1
DICPCG:  Solving for Vm, Initial residual = 7.30497e-06, Final residual = 6.68763e-16, No Iterations 4
PIMPLE: iteration 2
DICPCG:  Solving for Vm, Initial residual = 6.68466e-16, Final residual = 6.68466e-16, No Iterations 0
ExecutionTime = 12.84 s  ClockTime = 13 s

Time = 0.199733

DEBUG cell=0 t=0.199698→0.199733 step=3.50471e-05 V=-1.09506 u1=0.10558 u2=0.833222 u3=0 Iion=3.06636
DEBUG cell=0 t=0.199698→0.199733 step=0.000315424 V=-1.09506 u1=0.105599 u2=0.833197 u3=0 Iion=3.06638
PIMPLE: iteration 1
DICPCG:  Solving for Vm, Initial residual = 7.30475e-06, Final residual = 6.68744e-16, No Iterations 4
PIMPLE: iteration 2
DICPCG:  Solving for Vm, Initial residual = 6.69285e-16, Final residual = 6.69285e-16, No Iterations 0
ExecutionTime = 12.85 s  ClockTime = 13 s

Time = 0.199768

DEBUG cell=0 t=0.199733→0.199768 step=3.50471e-05 V=-1.09508 u1=0.105599 u2=0.833197 u3=0 Iion=3.06638
DEBUG cell=0 t=0.199733→0.199768 step=0.000315424 V=-1.09508 u1=0.105619 u2=0.833173 u3=0 Iion=3.06639
PIMPLE: iteration 1
DICPCG:  Solving for Vm, Initial residual = 7.30454e-06, Final residual = 6.68724e-16, No Iterations 4
PIMPLE: iteration 2
DICPCG:  Solving for Vm, Initial residual = 6.6896e-16, Final residual = 6.6896e-16, No Iterations 0
ExecutionTime = 12.85 s  ClockTime = 13 s

Time = 0.199804

DEBUG cell=0 t=0.199768→0.199804 step=3.50471e-05 V=-1.09509 u1=0.105619 u2=0.833173 u3=0 Iion=3.06639
DEBUG cell=0 t=0.199768→0.199804 step=0.000315424 V=-1.09509 u1=0.105638 u2=0.833148 u3=0 Iion=3.06641
PIMPLE: iteration 1
DICPCG:  Solving for Vm, Initial residual = 7.30433e-06, Final residual = 6.68705e-16, No Iterations 4
PIMPLE: iteration 2
DICPCG:  Solving for Vm, Initial residual = 6.697e-16, Final residual = 6.697e-16, No Iterations 0
ExecutionTime = 12.85 s  ClockTime = 13 s

Time = 0.199839

DEBUG cell=0 t=0.199804→0.199839 step=3.50471e-05 V=-1.09511 u1=0.105638 u2=0.833148 u3=0 Iion=3.06641
DEBUG cell=0 t=0.199804→0.199839 step=0.000315424 V=-1.09511 u1=0.105657 u2=0.833124 u3=0 Iion=3.06643
PIMPLE: iteration 1
DICPCG:  Solving for Vm, Initial residual = 7.30411e-06, Final residual = 6.68685e-16, No Iterations 4
PIMPLE: iteration 2
DICPCG:  Solving for Vm, Initial residual = 6.68678e-16, Final residual = 6.68678e-16, No Iterations 0
ExecutionTime = 12.85 s  ClockTime = 13 s

Time = 0.199874

DEBUG cell=0 t=0.199839→0.199874 step=3.50471e-05 V=-1.09513 u1=0.105657 u2=0.833124 u3=0 Iion=3.06643
DEBUG cell=0 t=0.199839→0.199874 step=0.000315424 V=-1.09513 u1=0.105676 u2=0.8331 u3=0 Iion=3.06645
PIMPLE: iteration 1
DICPCG:  Solving for Vm, Initial residual = 7.3039e-06, Final residual = 6.68666e-16, No Iterations 4
PIMPLE: iteration 2
DICPCG:  Solving for Vm, Initial residual = 6.6933e-16, Final residual = 6.6933e-16, No Iterations 0
ExecutionTime = 12.86 s  ClockTime = 13 s

Time = 0.199909

DEBUG cell=0 t=0.199874→0.199909 step=3.50471e-05 V=-1.09514 u1=0.105676 u2=0.8331 u3=0 Iion=3.06645
DEBUG cell=0 t=0.199874→0.199909 step=0.000315424 V=-1.09514 u1=0.105695 u2=0.833075 u3=0 Iion=3.06647
PIMPLE: iteration 1
DICPCG:  Solving for Vm, Initial residual = 7.30369e-06, Final residual = 6.68646e-16, No Iterations 4
PIMPLE: iteration 2
DICPCG:  Solving for Vm, Initial residual = 6.69559e-16, Final residual = 6.69559e-16, No Iterations 0
ExecutionTime = 12.86 s  ClockTime = 13 s

Time = 0.199944

DEBUG cell=0 t=0.199909→0.199944 step=3.50471e-05 V=-1.09516 u1=0.105695 u2=0.833075 u3=0 Iion=3.06647
DEBUG cell=0 t=0.199909→0.199944 step=0.000315424 V=-1.09516 u1=0.105714 u2=0.833051 u3=0 Iion=3.06649
PIMPLE: iteration 1
DICPCG:  Solving for Vm, Initial residual = 7.30347e-06, Final residual = 6.68627e-16, No Iterations 4
PIMPLE: iteration 2
DICPCG:  Solving for Vm, Initial residual = 6.6839e-16, Final residual = 6.6839e-16, No Iterations 0
ExecutionTime = 12.86 s  ClockTime = 13 s

Time = 0.199979

DEBUG cell=0 t=0.199944→0.199979 step=3.50471e-05 V=-1.09517 u1=0.105714 u2=0.833051 u3=0 Iion=3.06649
DEBUG cell=0 t=0.199944→0.199979 step=0.000315424 V=-1.09517 u1=0.105733 u2=0.833027 u3=0 Iion=3.0665
PIMPLE: iteration 1
DICPCG:  Solving for Vm, Initial residual = 7.30326e-06, Final residual = 6.68607e-16, No Iterations 4
PIMPLE: iteration 2
DICPCG:  Solving for Vm, Initial residual = 6.68915e-16, Final residual = 6.68915e-16, No Iterations 0
ExecutionTime = 12.86 s  ClockTime = 13 s

Time = 0.200014

DEBUG cell=0 t=0.199979→0.200014 step=3.50471e-05 V=-1.09519 u1=0.105733 u2=0.833027 u3=0 Iion=3.0665
DEBUG cell=0 t=0.199979→0.200014 step=0.000315424 V=-1.09519 u1=0.105752 u2=0.833002 u3=0 Iion=3.06652
PIMPLE: iteration 1
DICPCG:  Solving for Vm, Initial residual = 7.30305e-06, Final residual = 6.68588e-16, No Iterations 4
PIMPLE: iteration 2
DICPCG:  Solving for Vm, Initial residual = 6.69621e-16, Final residual = 6.69621e-16, No Iterations 0
Running postProcess via tmanufacturedFDA.

Simulation summary:
-------------------
Number of cells (N)   = 160
Solver type           = Implicit
Grid spacing (dx)     = 0.00625
Time step (dt)        = 3.50471e-05
Number of steps       = 5707
Final simulation time = 0.200014
-------------------

Manufactured-solution error summary (t = 0.200014):
-------------------------------------------------
Field     L1-error       L2-error       Linf-error
Vm     7.605e-06   9.38403e-06   1.94078e-05
u1     3.15852e-08   5.25946e-08   1.96987e-07
u2     1.14736e-08   1.87659e-08   7.42276e-08
-------------------------------------------------

ExecutionTime = 12.87 s  ClockTime = 13 s


End

Finalising parallel run
