/*---------------------------------------------------------------------------*\
| =========                 |                                                 |
| \\      /  F ield         | OpenFOAM: The Open Source CFD Toolbox           |
|  \\    /   O peration     | Version:  2412                                  |
|   \\  /    A nd           | Website:  www.openfoam.com                      |
|    \\/     M anipulation  |                                                 |
\*---------------------------------------------------------------------------*/
Build  : _8dbc61e11c-20241220 OPENFOAM=2412 version=v2412
Arch   : "LSB;label=32;scalar=64"
Exec   : cardiacFoam -parallel
Date   : Apr 09 2026
Time   : 22:16:23
Host   : macbook
PID    : 3269
I/O    : uncollated
Case   : /Users/simaocastro/cardiacFoamEPsacred/cardiacFoamsacred/tutorials/bidomainFDA
nProcs : 6
Hosts  :
(
    (macbook 6)
)
Pstream initialized with:
    floatTransfer      : false
    maxCommsSize       : 0
    nProcsSimpleSum    : 0
    nonBlockingExchange: 0 (tuning: 0)
    exchange algorithm : 0
    commsType          : nonBlocking
    polling iterations : 0
trapFpe: Floating point exception trapping enabled (FOAM_SIGFPE).
fileModificationChecking : Monitoring run-time modified files using timeStampMaster (fileModificationSkew 5, maxFileModificationPolls 20)
allowSystemOperations : Allowing user-supplied system call operations

// * * * * * * * * * * * * * * * * * * * * * * * * * * * * * * * * * * * * * //
Create time

Selecting physicsModel electroModel

Selecting myocardiumSolver bidomainSolver
Selecting electroVerificationModel manufacturedFDABidomainVerifier

Selecting myocardiumSolver bidomainSolver

conductivityIntracellular not found on disk, using value from "/Users/simaocastro/cardiacFoamEPsacred/cardiacFoamsacred/tutorials/bidomainFDA/processor0/../constant/electroProperties/bidomainSolverCoeffs"


conductivityExtracellular not found on disk, using value from "/Users/simaocastro/cardiacFoamEPsacred/cardiacFoamsacred/tutorials/bidomainFDA/processor0/../constant/electroProperties/bidomainSolverCoeffs"

Using verification model manufacturedFDABidomainVerifier.
Running preProcess with fields 3(u1 u2 u3).
Selecting electrophysicsAdvanceScheme staggeredElectrophysicsAdvanceScheme
Time = 0.000560538


PIMPLE: no residual control data found. Calculations will employ 2 corrector loops

DEBUG cell=0 t=0→0.000560538 step=0.000560538 V=-0.996149 u1=0.00713446 u2=0.998362 u3=0 Iion=0
Selecting ODE solver RKF45
DEBUG cell=0 t=0→0.000560538 step=0.00504484 V=-0.996149 u1=0.00741761 u2=0.997803 u3=0 Iion=1.56912
[2] Bidomain phiE reference debug: proc=2 point=(0.125 0.05 0.05) refCell=-1 ownsReference=0
[1] Bidomain phiE reference debug: proc=1 point=(0.125 0.05 0.05) refCell=-1 ownsReference=0
[5] Bidomain phiE reference debug: proc=5 point=(0.125 0.05 0.05) refCell=-1 ownsReference=0
[0] Bidomain phiE reference debug: proc=0 point=(0.125 0.05 0.05) refCell=-1 ownsReference=0
[4] Bidomain phiE reference debug: proc=4 point=(0.125 0.05 0.05) refCell=17 ownsReference=1
[3] Bidomain phiE reference debug: proc=3 point=(0.125 0.05 0.05) refCell=-1 ownsReference=0
Bidomain phiE reference summary: ownerCount=1 ownerProc=4 point=(0.125 0.05 0.05)
PIMPLE: iteration 1
[0] Bidomain phiE solve debug: proc=0 entering solve, refCell=-1 refValue=0 outerIter=1
[3] Bidomain phiE solve debug: proc=3 entering solve, refCell=-1 refValue=0 outerIter=1
[4] Bidomain phiE solve debug: proc=4 entering solve, refCell=17 refValue=0 outerIter=1
[5] Bidomain phiE solve debug: proc=5 entering solve, refCell=-1 refValue=0 outerIter=1
[2] Bidomain phiE solve debug: proc=2 entering solve, refCell=-1 refValue=0 outerIter=1
[1] Bidomain phiE solve debug: proc=1 entering solve, refCell=-1 refValue=0 outerIter=1
DICPCG:  Solving for phiE, Initial residual = 0.00505478, Final residual = 6.08945e-16, No Iterations 110
[3] Bidomain phiE solve debug: proc=3 completed solve, outerIter=1
[0] Bidomain phiE solve debug: proc=0 completed solve, outerIter=1
[2] Bidomain phiE solve debug: proc=2 completed solve, outerIter=1
[4] Bidomain phiE solve debug: proc=4 completed solve, outerIter=1
[5] Bidomain phiE solve debug: proc=5 completed solve, outerIter=1
[1] Bidomain phiE solve debug: proc=1 completed solve, outerIter=1
DICPCG:  Solving for Vm, Initial residual = 0.000138049, Final residual = 9.58652e-17, No Iterations 6
PIMPLE: iteration 2
[3] Bidomain phiE solve debug: proc=3 entering solve, refCell=-1 refValue=0 outerIter=2
[2] Bidomain phiE solve debug: proc=2 entering solve, refCell=-1 refValue=0 outerIter=2
[0] Bidomain phiE solve debug: proc=0 entering solve, refCell=-1 refValue=0 outerIter=2
[5] Bidomain phiE solve debug: proc=5 entering solve, refCell=-1 refValue=0 outerIter=2
[1] Bidomain phiE solve debug: proc=1 entering solve, refCell=-1 refValue=0 outerIter=2
[4] Bidomain phiE solve debug: proc=4 entering solve, refCell=17 refValue=0 outerIter=2
DICPCG:  Solving for phiE, Initial residual = 0.000117202, Final residual = 9.49496e-16, No Iterations 101
[0] Bidomain phiE solve debug: proc=0 completed solve, outerIter=2
[3] Bidomain phiE solve debug: proc=3 completed solve, outerIter=2
[1] Bidomain phiE solve debug: proc=1 completed solve, outerIter=2
[5] Bidomain phiE solve debug: proc=5 completed solve, outerIter=2
[4] Bidomain phiE solve debug: proc=4 completed solve, outerIter=2
[2] Bidomain phiE solve debug: proc=2 completed solve, outerIter=2
DICPCG:  Solving for Vm, Initial residual = 5.31064e-08, Final residual = 1.18411e-16, No Iterations 4
ExecutionTime = 0.02 s  ClockTime = 0 s

Time = 0.00112108

DEBUG cell=0 t=0.000560538→0.00112108 step=0.000560538 V=-0.996424 u1=0.00741761 u2=0.997803 u3=0 Iion=1.56912
DEBUG cell=0 t=0.000560538→0.00112108 step=0.00504484 V=-0.996424 u1=0.00770083 u2=0.997245 u3=0 Iion=1.56899
[3] Bidomain phiE reference debug: proc=3 point=(0.125 0.05 0.05) refCell=-1 ownsReference=0
[5] Bidomain phiE reference debug: proc=5 point=(0.125 0.05 0.05) refCell=-1 ownsReference=0
[2] Bidomain phiE reference debug: proc=2 point=(0.125 0.05 0.05) refCell=-1 ownsReference=0
[4] Bidomain phiE reference debug: proc=4 point=(0.125 0.05 0.05) refCell=17 ownsReference=1
[1] Bidomain phiE reference debug: proc=1 point=(0.125 0.05 0.05) refCell=-1 ownsReference=0
[0] Bidomain phiE reference debug: proc=0 point=(0.125 0.05 0.05) refCell=-1 ownsReference=0
Bidomain phiE reference summary: ownerCount=1 ownerProc=4 point=(0.125 0.05 0.05)
PIMPLE: iteration 1
[0] Bidomain phiE solve debug: proc=0 entering solve, refCell=-1 refValue=0 outerIter=1
[4] Bidomain phiE solve debug: proc=4 entering solve, refCell=17 refValue=0 outerIter=1
[1] Bidomain phiE solve debug: proc=1 entering solve, refCell=-1 refValue=0 outerIter=1
[5] Bidomain phiE solve debug: proc=5 entering solve, refCell=-1 refValue=0 outerIter=1
[2] Bidomain phiE solve debug: proc=2 entering solve, refCell=-1 refValue=0 outerIter=1
[3] Bidomain phiE solve debug: proc=3 entering solve, refCell=-1 refValue=0 outerIter=1
DICPCG:  Solving for phiE, Initial residual = 4.50855e-08, Final residual = 8.51806e-16, No Iterations 87
[0] Bidomain phiE solve debug: proc=0 completed solve, outerIter=1
[5] Bidomain phiE solve debug: proc=5 completed solve, outerIter=1
[3] Bidomain phiE solve debug: proc=3 completed solve, outerIter=1
[1] Bidomain phiE solve debug: proc=1 completed solve, outerIter=1
[4] Bidomain phiE solve debug: proc=4 completed solve, outerIter=1
[2] Bidomain phiE solve debug: proc=2 completed solve, outerIter=1
DICPCG:  Solving for Vm, Initial residual = 0.000138002, Final residual = 5.02574e-16, No Iterations 5
PIMPLE: iteration 2
[0] Bidomain phiE solve debug: proc=0 entering solve, refCell=-1 refValue=0 outerIter=2
[3] Bidomain phiE solve debug: proc=3 entering solve, refCell=-1 refValue=0 outerIter=2
[4] Bidomain phiE solve debug: proc=4 entering solve, refCell=17 refValue=0 outerIter=2
[5] Bidomain phiE solve debug: proc=5 entering solve, refCell=-1 refValue=0 outerIter=2
[1] Bidomain phiE solve debug: proc=1 entering solve, refCell=-1 refValue=0 outerIter=2
[2] Bidomain phiE solve debug: proc=2 entering solve, refCell=-1 refValue=0 outerIter=2
DICPCG:  Solving for phiE, Initial residual = 0.000117162, Final residual = 9.49156e-16, No Iterations 101
[5] Bidomain phiE solve debug: proc=5 completed solve, outerIter=2
[2] Bidomain phiE solve debug: proc=2 completed solve, outerIter=2
[3] Bidomain phiE solve debug: proc=3 completed solve, outerIter=2
[0] Bidomain phiE solve debug: proc=0 completed solve, outerIter=2
[1] Bidomain phiE solve debug: proc=1 completed solve, outerIter=2
[4] Bidomain phiE solve debug: proc=4 completed solve, outerIter=2
DICPCG:  Solving for Vm, Initial residual = 3.53986e-08, Final residual = 1.41355e-17, No Iterations 4
ExecutionTime = 0.02 s  ClockTime = 0 s

Time = 0.00168161

DEBUG cell=0 t=0.00112108→0.00168161 step=0.000560538 V=-0.996699 u1=0.00770083 u2=0.997245 u3=0 Iion=1.56899
DEBUG cell=0 t=0.00112108→0.00168161 step=0.00504484 V=-0.996699 u1=0.00798413 u2=0.996687 u3=0 Iion=1.56886
[5] Bidomain phiE reference debug: proc=5 point=(0.125 0.05 0.05) refCell=-1 ownsReference=0
[3] Bidomain phiE reference debug: proc=3 point=(0.125 0.05 0.05) refCell=-1 ownsReference=0
[2] Bidomain phiE reference debug: proc=2 point=(0.125 0.05 0.05) refCell=-1 ownsReference=0
[4] Bidomain phiE reference debug: proc=4 point=(0.125 0.05 0.05) refCell=17 ownsReference=1
[1] Bidomain phiE reference debug: proc=1 point=(0.125 0.05 0.05) refCell=-1 ownsReference=0
[0] Bidomain phiE reference debug: proc=0 point=(0.125 0.05 0.05) refCell=-1 ownsReference=0
Bidomain phiE reference summary: ownerCount=1 ownerProc=4 point=(0.125 0.05 0.05)
PIMPLE: iteration 1
[0] Bidomain phiE solve debug: proc=0 entering solve, refCell=-1 refValue=0 outerIter=1
[3] Bidomain phiE solve debug: proc=3 entering solve, refCell=-1 refValue=0 outerIter=1
[2] Bidomain phiE solve debug: proc=2 entering solve, refCell=-1 refValue=0 outerIter=1
[4] Bidomain phiE solve debug: proc=4 entering solve, refCell=17 refValue=0 outerIter=1
[1] Bidomain phiE solve debug: proc=1 entering solve, refCell=-1 refValue=0 outerIter=1
[5] Bidomain phiE solve debug: proc=5 entering solve, refCell=-1 refValue=0 outerIter=1
DICPCG:  Solving for phiE, Initial residual = 3.00522e-08, Final residual = 7.82523e-16, No Iterations 86
[0] Bidomain phiE solve debug: proc=0 completed solve, outerIter=1
[3] Bidomain phiE solve debug: proc=3 completed solve, outerIter=1
[5] Bidomain phiE solve debug: proc=5 completed solve, outerIter=1
[2] Bidomain phiE solve debug: proc=2 completed solve, outerIter=1
[1] Bidomain phiE solve debug: proc=1 completed solve, outerIter=1
[4] Bidomain phiE solve debug: proc=4 completed solve, outerIter=1
DICPCG:  Solving for Vm, Initial residual = 0.000137928, Final residual = 5.02305e-16, No Iterations 5
PIMPLE: iteration 2
[0] Bidomain phiE solve debug: proc=0 entering solve, refCell=-1 refValue=0 outerIter=2
[3] Bidomain phiE solve debug: proc=3 entering solve, refCell=-1 refValue=0 outerIter=2
[2] Bidomain phiE solve debug: proc=2 entering solve, refCell=-1 refValue=0 outerIter=2
[4] Bidomain phiE solve debug: proc=4 entering solve, refCell=17 refValue=0 outerIter=2
[5] Bidomain phiE solve debug: proc=5 entering solve, refCell=-1 refValue=0 outerIter=2
[1] Bidomain phiE solve debug: proc=1 entering solve, refCell=-1 refValue=0 outerIter=2
DICPCG:  Solving for phiE, Initial residual = 0.000117099, Final residual = 9.4863e-16, No Iterations 101
[0] Bidomain phiE solve debug: proc=0 completed solve, outerIter=2
[5] Bidomain phiE solve debug: proc=5 completed solve, outerIter=2
[3] Bidomain phiE solve debug: proc=3 completed solve, outerIter=2
[2] Bidomain phiE solve debug: proc=2 completed solve, outerIter=2
[4] Bidomain phiE solve debug: proc=4 completed solve, outerIter=2
[1] Bidomain phiE solve debug: proc=1 completed solve, outerIter=2
DICPCG:  Solving for Vm, Initial residual = 3.53797e-08, Final residual = 1.4128e-17, No Iterations 4
ExecutionTime = 0.02 s  ClockTime = 0 s

Time = 0.00224215

DEBUG cell=0 t=0.00168161→0.00224215 step=0.000560538 V=-0.996974 u1=0.00798413 u2=0.996687 u3=0 Iion=1.56886
DEBUG cell=0 t=0.00168161→0.00224215 step=0.00504484 V=-0.996974 u1=0.00826751 u2=0.996129 u3=0 Iion=1.56874
[3] Bidomain phiE reference debug: proc=3 point=(0.125 0.05 0.05) refCell=-1 ownsReference=0
[2] Bidomain phiE reference debug: proc=2 point=(0.125 0.05 0.05) refCell=-1 ownsReference=0
[5] Bidomain phiE reference debug: proc=5 point=(0.125 0.05 0.05) refCell=-1 ownsReference=0
[4] Bidomain phiE reference debug: proc=4 point=(0.125 0.05 0.05) refCell=17 ownsReference=1
[1] Bidomain phiE reference debug: proc=1 point=(0.125 0.05 0.05) refCell=-1 ownsReference=0
[0] Bidomain phiE reference debug: proc=0 point=(0.125 0.05 0.05) refCell=-1 ownsReference=0
Bidomain phiE reference summary: ownerCount=1 ownerProc=4 point=(0.125 0.05 0.05)
PIMPLE: iteration 1
[0] Bidomain phiE solve debug: proc=0 entering solve, refCell=-1 refValue=0 outerIter=1
[4] Bidomain phiE solve debug: proc=4 entering solve, refCell=17 refValue=0 outerIter=1
[3] Bidomain phiE solve debug: proc=3 entering solve, refCell=-1 refValue=0 outerIter=1
[1] Bidomain phiE solve debug: proc=1 entering solve, refCell=-1 refValue=0 outerIter=1
[2] Bidomain phiE solve debug: proc=2 entering solve, refCell=-1 refValue=0 outerIter=1
[5] Bidomain phiE solve debug: proc=5 entering solve, refCell=-1 refValue=0 outerIter=1
DICPCG:  Solving for phiE, Initial residual = 3.00361e-08, Final residual = 7.8209e-16, No Iterations 86
[0] Bidomain phiE solve debug: proc=0 completed solve, outerIter=1
[3] Bidomain phiE solve debug: proc=3 completed solve, outerIter=1
[5] Bidomain phiE solve debug: proc=5 completed solve, outerIter=1
[2] Bidomain phiE solve debug: proc=2 completed solve, outerIter=1
[1] Bidomain phiE solve debug: proc=1 completed solve, outerIter=1
[4] Bidomain phiE solve debug: proc=4 completed solve, outerIter=1
DICPCG:  Solving for Vm, Initial residual = 0.000137852, Final residual = 5.02025e-16, No Iterations 5
PIMPLE: iteration 2
[0] Bidomain phiE solve debug: proc=0 entering solve, refCell=-1 refValue=0 outerIter=2
[3] Bidomain phiE solve debug: proc=3 entering solve, refCell=-1 refValue=0 outerIter=2
[2] Bidomain phiE solve debug: proc=2 entering solve, refCell=-1 refValue=0 outerIter=2
[5] Bidomain phiE solve debug: proc=5 entering solve, refCell=-1 refValue=0 outerIter=2
[4] Bidomain phiE solve debug: proc=4 entering solve, refCell=17 refValue=0 outerIter=2
[1] Bidomain phiE solve debug: proc=1 entering solve, refCell=-1 refValue=0 outerIter=2
DICPCG:  Solving for phiE, Initial residual = 0.000117034, Final residual = 9.48083e-16, No Iterations 101
[0] Bidomain phiE solve debug: proc=0 completed solve, outerIter=2
[3] Bidomain phiE solve debug: proc=3 completed solve, outerIter=2
[5] Bidomain phiE solve debug: proc=5 completed solve, outerIter=2
[2] Bidomain phiE solve debug: proc=2 completed solve, outerIter=2
[1] Bidomain phiE solve debug: proc=1 completed solve, outerIter=2
[4] Bidomain phiE solve debug: proc=4 completed solve, outerIter=2
DICPCG:  Solving for Vm, Initial residual = 3.536e-08, Final residual = 1.41201e-17, No Iterations 4
ExecutionTime = 0.02 s  ClockTime = 0 s

Time = 0.00280269

DEBUG cell=0 t=0.00224215→0.00280269 step=0.000560538 V=-0.997249 u1=0.00826751 u2=0.996129 u3=0 Iion=1.56874
DEBUG cell=0 t=0.00224215→0.00280269 step=0.00504484 V=-0.997249 u1=0.00855096 u2=0.995573 u3=0 Iion=1.56861
[3] Bidomain phiE reference debug: proc=3 point=(0.125 0.05 0.05) refCell=-1 ownsReference=0
[2] Bidomain phiE reference debug: proc=2 point=(0.125 0.05 0.05) refCell=-1 ownsReference=0
[5] Bidomain phiE reference debug: proc=5 point=(0.125 0.05 0.05) refCell=-1 ownsReference=0
[4] Bidomain phiE reference debug: proc=4 point=(0.125 0.05 0.05) refCell=17 ownsReference=1
[1] Bidomain phiE reference debug: proc=1 point=(0.125 0.05 0.05) refCell=-1 ownsReference=0
[0] Bidomain phiE reference debug: proc=0 point=(0.125 0.05 0.05) refCell=-1 ownsReference=0
Bidomain phiE reference summary: ownerCount=1 ownerProc=4 point=(0.125 0.05 0.05)
PIMPLE: iteration 1
[0] Bidomain phiE solve debug: proc=0 entering solve, refCell=-1 refValue=0 outerIter=1
[3] Bidomain phiE solve debug: proc=3 entering solve, refCell=-1 refValue=0 outerIter=1
[2] Bidomain phiE solve debug: proc=2 entering solve, refCell=-1 refValue=0 outerIter=1
[4] Bidomain phiE solve debug: proc=4 entering solve, refCell=17 refValue=0 outerIter=1
[5] Bidomain phiE solve debug: proc=5 entering solve, refCell=-1 refValue=0 outerIter=1
[1] Bidomain phiE solve debug: proc=1 entering solve, refCell=-1 refValue=0 outerIter=1
DICPCG:  Solving for phiE, Initial residual = 3.00194e-08, Final residual = 7.81642e-16, No Iterations 86
[0] Bidomain phiE solve debug: proc=0 completed solve, outerIter=1
[3] Bidomain phiE solve debug: proc=3 completed solve, outerIter=1
[5] Bidomain phiE solve debug: proc=5 completed solve, outerIter=1
[2] Bidomain phiE solve debug: proc=2 completed solve, outerIter=1
[1] Bidomain phiE solve debug: proc=1 completed solve, outerIter=1
[4] Bidomain phiE solve debug: proc=4 completed solve, outerIter=1
DICPCG:  Solving for Vm, Initial residual = 0.000137774, Final residual = 5.01743e-16, No Iterations 5
PIMPLE: iteration 2
[0] Bidomain phiE solve debug: proc=0 entering solve, refCell=-1 refValue=0 outerIter=2
[5] Bidomain phiE solve debug: proc=5 entering solve, refCell=-1 refValue=0 outerIter=2
[4] Bidomain phiE solve debug: proc=4 entering solve, refCell=17 refValue=0 outerIter=2
[3] Bidomain phiE solve debug: proc=3 entering solve, refCell=-1 refValue=0 outerIter=2
[1] Bidomain phiE solve debug: proc=1 entering solve, refCell=-1 refValue=0 outerIter=2
[2] Bidomain phiE solve debug: proc=2 entering solve, refCell=-1 refValue=0 outerIter=2
DICPCG:  Solving for phiE, Initial residual = 0.000116968, Final residual = 9.47528e-16, No Iterations 101
[0] Bidomain phiE solve debug: proc=0 completed solve, outerIter=2
[3] Bidomain phiE solve debug: proc=3 completed solve, outerIter=2
[5] Bidomain phiE solve debug: proc=5 completed solve, outerIter=2
[2] Bidomain phiE solve debug: proc=2 completed solve, outerIter=2
[1] Bidomain phiE solve debug: proc=1 completed solve, outerIter=2
[4] Bidomain phiE solve debug: proc=4 completed solve, outerIter=2
DICPCG:  Solving for Vm, Initial residual = 3.53401e-08, Final residual = 1.41121e-17, No Iterations 4
ExecutionTime = 0.02 s  ClockTime = 0 s

Time = 0.00336323

DEBUG cell=0 t=0.00280269→0.00336323 step=0.000560538 V=-0.997524 u1=0.00855096 u2=0.995573 u3=0 Iion=1.56861
DEBUG cell=0 t=0.00280269→0.00336323 step=0.00504484 V=-0.997524 u1=0.00883449 u2=0.995016 u3=0 Iion=1.56848
[3] Bidomain phiE reference debug: proc=3 point=(0.125 0.05 0.05) refCell=-1 ownsReference=0
[4] Bidomain phiE reference debug: proc=4 point=(0.125 0.05 0.05) refCell=17 ownsReference=1
[0] Bidomain phiE reference debug: proc=0 point=(0.125 0.05 0.05) refCell=-1 ownsReference=0
[5] Bidomain phiE reference debug: proc=5 point=(0.125 0.05 0.05) refCell=-1 ownsReference=0
[2] Bidomain phiE reference debug: proc=2 point=(0.125 0.05 0.05) refCell=-1 ownsReference=0
[1] Bidomain phiE reference debug: proc=1 point=(0.125 0.05 0.05) refCell=-1 ownsReference=0
Bidomain phiE reference summary: ownerCount=1 ownerProc=4 point=(0.125 0.05 0.05)
PIMPLE: iteration 1
[3] Bidomain phiE solve debug: proc=3 entering solve, refCell=-1 refValue=0 outerIter=1
[5] Bidomain phiE solve debug: proc=5 entering solve, refCell=-1 refValue=0 outerIter=1
[2] Bidomain phiE solve debug: proc=2 entering solve, refCell=-1 refValue=0 outerIter=1
[4] Bidomain phiE solve debug: proc=4 entering solve, refCell=17 refValue=0 outerIter=1
[1] Bidomain phiE solve debug: proc=1 entering solve, refCell=-1 refValue=0 outerIter=1
[0] Bidomain phiE solve debug: proc=0 entering solve, refCell=-1 refValue=0 outerIter=1
DICPCG:  Solving for phiE, Initial residual = 3.00025e-08, Final residual = 7.81183e-16, No Iterations 86
[5] Bidomain phiE solve debug: proc=5 completed solve, outerIter=1
[3] Bidomain phiE solve debug: proc=3 completed solve, outerIter=1
[4] Bidomain phiE solve debug: proc=4 completed solve, outerIter=1
[0] Bidomain phiE solve debug: proc=0 completed solve, outerIter=1
[2] Bidomain phiE solve debug: proc=2 completed solve, outerIter=1
[1] Bidomain phiE solve debug: proc=1 completed solve, outerIter=1
DICPCG:  Solving for Vm, Initial residual = 0.000137696, Final residual = 5.01459e-16, No Iterations 5
PIMPLE: iteration 2
[3] Bidomain phiE solve debug: proc=3 entering solve, refCell=-1 refValue=0 outerIter=2
[4] Bidomain phiE solve debug: proc=4 entering solve, refCell=17 refValue=0 outerIter=2
[5] Bidomain phiE solve debug: proc=5 entering solve, refCell=-1 refValue=0 outerIter=2
[0] Bidomain phiE solve debug: proc=0 entering solve, refCell=-1 refValue=0 outerIter=2
[2] Bidomain phiE solve debug: proc=2 entering solve, refCell=-1 refValue=0 outerIter=2
[1] Bidomain phiE solve debug: proc=1 entering solve, refCell=-1 refValue=0 outerIter=2
DICPCG:  Solving for phiE, Initial residual = 0.000116902, Final residual = 9.46972e-16, No Iterations 101
[0] Bidomain phiE solve debug: proc=0 completed solve, outerIter=2
[3] Bidomain phiE solve debug: proc=3 completed solve, outerIter=2
[5] Bidomain phiE solve debug: proc=5 completed solve, outerIter=2
[2] Bidomain phiE solve debug: proc=2 completed solve, outerIter=2
[4] Bidomain phiE solve debug: proc=4 completed solve, outerIter=2
[1] Bidomain phiE solve debug: proc=1 completed solve, outerIter=2
DICPCG:  Solving for Vm, Initial residual = 3.53201e-08, Final residual = 1.41042e-17, No Iterations 4
ExecutionTime = 0.02 s  ClockTime = 0 s

Time = 0.00392377

DEBUG cell=0 t=0.00336323→0.00392377 step=0.000560538 V=-0.997798 u1=0.00883449 u2=0.995016 u3=0 Iion=1.56848
DEBUG cell=0 t=0.00336323→0.00392377 step=0.00504484 V=-0.997798 u1=0.00911809 u2=0.994461 u3=0 Iion=1.56836
[3] Bidomain phiE reference debug: proc=3 point=(0.125 0.05 0.05) refCell=-1 ownsReference=0
[5] Bidomain phiE reference debug: proc=5 point=(0.125 0.05 0.05) refCell=-1 ownsReference=0
[2] Bidomain phiE reference debug: proc=2 point=(0.125 0.05 0.05) refCell=-1 ownsReference=0
[4] Bidomain phiE reference debug: proc=4 point=(0.125 0.05 0.05) refCell=17 ownsReference=1
[1] Bidomain phiE reference debug: proc=1 point=(0.125 0.05 0.05) refCell=-1 ownsReference=0
[0] Bidomain phiE reference debug: proc=0 point=(0.125 0.05 0.05) refCell=-1 ownsReference=0
Bidomain phiE reference summary: ownerCount=1 ownerProc=4 point=(0.125 0.05 0.05)
PIMPLE: iteration 1
[3] Bidomain phiE solve debug: proc=3 entering solve, refCell=-1 refValue=0 outerIter=1
[4] Bidomain phiE solve debug: proc=4 entering solve, refCell=17 refValue=0 outerIter=1
[5] Bidomain phiE solve debug: proc=5 entering solve, refCell=-1 refValue=0 outerIter=1
[0] Bidomain phiE solve debug: proc=0 entering solve, refCell=-1 refValue=0 outerIter=1
[2] Bidomain phiE solve debug: proc=2 entering solve, refCell=-1 refValue=0 outerIter=1
[1] Bidomain phiE solve debug: proc=1 entering solve, refCell=-1 refValue=0 outerIter=1
DICPCG:  Solving for phiE, Initial residual = 2.99856e-08, Final residual = 7.80727e-16, No Iterations 86
[0] Bidomain phiE solve debug: proc=0 completed solve, outerIter=1
[3] Bidomain phiE solve debug: proc=3 completed solve, outerIter=1
[4] Bidomain phiE solve debug: proc=4 completed solve, outerIter=1
[2] Bidomain phiE solve debug: proc=2 completed solve, outerIter=1
[1] Bidomain phiE solve debug: proc=1 completed solve, outerIter=1
[5] Bidomain phiE solve debug: proc=5 completed solve, outerIter=1
DICPCG:  Solving for Vm, Initial residual = 0.000137618, Final residual = 5.01175e-16, No Iterations 5
PIMPLE: iteration 2
[0] Bidomain phiE solve debug: proc=0 entering solve, refCell=-1 refValue=0 outerIter=2
[3] Bidomain phiE solve debug: proc=3 entering solve, refCell=-1 refValue=0 outerIter=2
[4] Bidomain phiE solve debug: proc=4 entering solve, refCell=17 refValue=0 outerIter=2
[2] Bidomain phiE solve debug: proc=2 entering solve, refCell=-1 refValue=0 outerIter=2
[1] Bidomain phiE solve debug: proc=1 entering solve, refCell=-1 refValue=0 outerIter=2
[5] Bidomain phiE solve debug: proc=5 entering solve, refCell=-1 refValue=0 outerIter=2
DICPCG:  Solving for phiE, Initial residual = 0.000116836, Final residual = 9.46416e-16, No Iterations 101
[0] Bidomain phiE solve debug: proc=0 completed solve, outerIter=2
[3] Bidomain phiE solve debug: proc=3 completed solve, outerIter=2
[2] Bidomain phiE solve debug: proc=2 completed solve, outerIter=2
[4] Bidomain phiE solve debug: proc=4 completed solve, outerIter=2
[5] Bidomain phiE solve debug: proc=5 completed solve, outerIter=2
[1] Bidomain phiE solve debug: proc=1 completed solve, outerIter=2
DICPCG:  Solving for Vm, Initial residual = 3.53002e-08, Final residual = 1.40962e-17, No Iterations 4
ExecutionTime = 0.03 s  ClockTime = 0 s

Time = 0.0044843

DEBUG cell=0 t=0.00392377→0.0044843 step=0.000560538 V=-0.998073 u1=0.00911809 u2=0.994461 u3=0 Iion=1.56836
DEBUG cell=0 t=0.00392377→0.0044843 step=0.00504484 V=-0.998073 u1=0.00940177 u2=0.993906 u3=0 Iion=1.56823
[4] Bidomain phiE reference debug: proc=4 point=(0.125 0.05 0.05) refCell=17 ownsReference=1
[3] Bidomain phiE reference debug: proc=3 point=(0.125 0.05 0.05) refCell=-1 ownsReference=0
[2] Bidomain phiE reference debug: proc=2 point=(0.125 0.05 0.05) refCell=-1 ownsReference=0
[1] Bidomain phiE reference debug: proc=1 point=(0.125 0.05 0.05) refCell=-1 ownsReference=0
[0] Bidomain phiE reference debug: proc=0 point=(0.125 0.05 0.05) refCell=-1 ownsReference=0
Bidomain phiE reference summary: ownerCount=1 ownerProc=4 point=(0.125 0.05 0.05)
PIMPLE: iteration 1
[5] Bidomain phiE reference debug: proc=5 point=(0.125 0.05 0.05) refCell=-1 ownsReference=0
[3] Bidomain phiE solve debug: proc=3 entering solve, refCell=-1 refValue=0 outerIter=1
[4] Bidomain phiE solve debug: proc=4 entering solve, refCell=17 refValue=0 outerIter=1
[0] Bidomain phiE solve debug: proc=0 entering solve, refCell=-1 refValue=0 outerIter=1
[1] Bidomain phiE solve debug: proc=1 entering solve, refCell=-1 refValue=0 outerIter=1
[2] Bidomain phiE solve debug: proc=2 entering solve, refCell=-1 refValue=0 outerIter=1
[5] Bidomain phiE solve debug: proc=5 entering solve, refCell=-1 refValue=0 outerIter=1
DICPCG:  Solving for phiE, Initial residual = 2.99686e-08, Final residual = 7.80269e-16, No Iterations 86
[0] Bidomain phiE solve debug: proc=0 completed solve, outerIter=1
[3] Bidomain phiE solve debug: proc=3 completed solve, outerIter=1
[2] Bidomain phiE solve debug: proc=2 completed solve, outerIter=1
[5] Bidomain phiE solve debug: proc=5 completed solve, outerIter=1
[4] Bidomain phiE solve debug: proc=4 completed solve, outerIter=1
[1] Bidomain phiE solve debug: proc=1 completed solve, outerIter=1
DICPCG:  Solving for Vm, Initial residual = 0.00013754, Final residual = 5.00891e-16, No Iterations 5
PIMPLE: iteration 2
[0] Bidomain phiE solve debug: proc=0 entering solve, refCell=-1 refValue=0 outerIter=2
[3] Bidomain phiE solve debug: proc=3 entering solve, refCell=-1 refValue=0 outerIter=2
[2] Bidomain phiE solve debug: proc=2 entering solve, refCell=-1 refValue=0 outerIter=2
[1] Bidomain phiE solve debug: proc=1 entering solve, refCell=-1 refValue=0 outerIter=2
[5] Bidomain phiE solve debug: proc=5 entering solve, refCell=-1 refValue=0 outerIter=2
[4] Bidomain phiE solve debug: proc=4 entering solve, refCell=17 refValue=0 outerIter=2
DICPCG:  Solving for phiE, Initial residual = 0.00011677, Final residual = 9.4586e-16, No Iterations 101
[0] Bidomain phiE solve debug: proc=0 completed solve, outerIter=2
[3] Bidomain phiE solve debug: proc=3 completed solve, outerIter=2
[2] Bidomain phiE solve debug: proc=2 completed solve, outerIter=2
[5] Bidomain phiE solve debug: proc=5 completed solve, outerIter=2
[4] Bidomain phiE solve debug: proc=4 completed solve, outerIter=2
[1] Bidomain phiE solve debug: proc=1 completed solve, outerIter=2
DICPCG:  Solving for Vm, Initial residual = 3.52802e-08, Final residual = 1.40882e-17, No Iterations 4
ExecutionTime = 0.03 s  ClockTime = 0 s

Time = 0.00504484

DEBUG cell=0 t=0.0044843→0.00504484 step=0.000560538 V=-0.998348 u1=0.00940177 u2=0.993906 u3=0 Iion=1.56823
DEBUG cell=0 t=0.0044843→0.00504484 step=0.00504484 V=-0.998348 u1=0.00968553 u2=0.993352 u3=0 Iion=1.5681
[3] Bidomain phiE reference debug: proc=3 point=(0.125 0.05 0.05) refCell=-1 ownsReference=0
[2] Bidomain phiE reference debug: proc=2 point=(0.125 0.05 0.05) refCell=-1 ownsReference=0
[4] Bidomain phiE reference debug: proc=4 point=(0.125 0.05 0.05) refCell=17 ownsReference=1
[5] Bidomain phiE reference debug: proc=5 point=(0.125 0.05 0.05) refCell=-1 ownsReference=0
[1] Bidomain phiE reference debug: proc=1 point=(0.125 0.05 0.05) refCell=-1 ownsReference=0
[0] Bidomain phiE reference debug: proc=0 point=(0.125 0.05 0.05) refCell=-1 ownsReference=0
Bidomain phiE reference summary: ownerCount=1 ownerProc=4 point=(0.125 0.05 0.05)
PIMPLE: iteration 1
[0] Bidomain phiE solve debug: proc=0 entering solve, refCell=-1 refValue=0 outerIter=1
[3] Bidomain phiE solve debug: proc=3 entering solve, refCell=-1 refValue=0 outerIter=1
[4] Bidomain phiE solve debug: proc=4 entering solve, refCell=17 refValue=0 outerIter=1
[2] Bidomain phiE solve debug: proc=2 entering solve, refCell=-1 refValue=0 outerIter=1
[1] Bidomain phiE solve debug: proc=1 entering solve, refCell=-1 refValue=0 outerIter=1
[5] Bidomain phiE solve debug: proc=5 entering solve, refCell=-1 refValue=0 outerIter=1
DICPCG:  Solving for phiE, Initial residual = 2.99517e-08, Final residual = 7.79812e-16, No Iterations 86
[0] Bidomain phiE solve debug: proc=0 completed solve, outerIter=1
[3] Bidomain phiE solve debug: proc=3 completed solve, outerIter=1
[2] Bidomain phiE solve debug: proc=2 completed solve, outerIter=1
[5] Bidomain phiE solve debug: proc=5 completed solve, outerIter=1
[4] Bidomain phiE solve debug: proc=4 completed solve, outerIter=1
[1] Bidomain phiE solve debug: proc=1 completed solve, outerIter=1
DICPCG:  Solving for Vm, Initial residual = 0.000137463, Final residual = 5.00608e-16, No Iterations 5
PIMPLE: iteration 2
[0] Bidomain phiE solve debug: proc=0 entering solve, refCell=-1 refValue=0 outerIter=2
[4] Bidomain phiE solve debug: proc=4 entering solve, refCell=17 refValue=0 outerIter=2
[3] Bidomain phiE solve debug: proc=3 entering solve, refCell=-1 refValue=0 outerIter=2
[2] Bidomain phiE solve debug: proc=2 entering solve, refCell=-1 refValue=0 outerIter=2
[1] Bidomain phiE solve debug: proc=1 entering solve, refCell=-1 refValue=0 outerIter=2
[5] Bidomain phiE solve debug: proc=5 entering solve, refCell=-1 refValue=0 outerIter=2
DICPCG:  Solving for phiE, Initial residual = 0.000116704, Final residual = 9.45305e-16, No Iterations 101
[0] Bidomain phiE solve debug: proc=0 completed solve, outerIter=2
[3] Bidomain phiE solve debug: proc=3 completed solve, outerIter=2
[2] Bidomain phiE solve debug: proc=2 completed solve, outerIter=2
[5] Bidomain phiE solve debug: proc=5 completed solve, outerIter=2
[4] Bidomain phiE solve debug: proc=4 completed solve, outerIter=2
[1] Bidomain phiE solve debug: proc=1 completed solve, outerIter=2
DICPCG:  Solving for Vm, Initial residual = 3.52603e-08, Final residual = 1.40802e-17, No Iterations 4
ExecutionTime = 0.03 s  ClockTime = 0 s

Time = 0.00560538

DEBUG cell=0 t=0.00504484→0.00560538 step=0.000560538 V=-0.998622 u1=0.00968553 u2=0.993352 u3=0 Iion=1.5681
DEBUG cell=0 t=0.00504484→0.00560538 step=0.00504484 V=-0.998622 u1=0.00996936 u2=0.992798 u3=0 Iion=1.56798
[3] Bidomain phiE reference debug: proc=3 point=(0.125 0.05 0.05) refCell=-1 ownsReference=0
[2] Bidomain phiE reference debug: proc=2 point=(0.125 0.05 0.05) refCell=-1 ownsReference=0
[1] Bidomain phiE reference debug: proc=1 point=(0.125 0.05 0.05) refCell=-1 ownsReference=0
[0] Bidomain phiE reference debug: proc=0 point=(0.125 0.05 0.05) refCell=-1 ownsReference=0
Bidomain phiE reference summary: ownerCount=1 ownerProc=4 point=(0.125 0.05 0.05)
[4] Bidomain phiE reference debug: proc=4 point=(0.125 0.05 0.05) refCell=17 ownsReference=1
[5] Bidomain phiE reference debug: proc=5 point=(0.125 0.05 0.05) refCell=-1 ownsReference=0
PIMPLE: iteration 1
[2] Bidomain phiE solve debug: proc=2 entering solve, refCell=-1 refValue=0 outerIter=1
[0] Bidomain phiE solve debug: proc=0 entering solve, refCell=-1 refValue=0 outerIter=1
[3] Bidomain phiE solve debug: proc=3 entering solve, refCell=-1 refValue=0 outerIter=1
[1] Bidomain phiE solve debug: proc=1 entering solve, refCell=-1 refValue=0 outerIter=1
[5] Bidomain phiE solve debug: proc=5 entering solve, refCell=-1 refValue=0 outerIter=1
[4] Bidomain phiE solve debug: proc=4 entering solve, refCell=17 refValue=0 outerIter=1
DICPCG:  Solving for phiE, Initial residual = 2.99347e-08, Final residual = 7.7936e-16, No Iterations 86
[0] Bidomain phiE solve debug: proc=0 completed solve, outerIter=1
[3] Bidomain phiE solve debug: proc=3 completed solve, outerIter=1
[2] Bidomain phiE solve debug: proc=2 completed solve, outerIter=1
[5] Bidomain phiE solve debug: proc=5 completed solve, outerIter=1
[1] Bidomain phiE solve debug: proc=1 completed solve, outerIter=1
[4] Bidomain phiE solve debug: proc=4 completed solve, outerIter=1
DICPCG:  Solving for Vm, Initial residual = 0.000137385, Final residual = 5.00325e-16, No Iterations 5
PIMPLE: iteration 2
[2] Bidomain phiE solve debug: proc=2 entering solve, refCell=-1 refValue=0 outerIter=2
[3] Bidomain phiE solve debug: proc=3 entering solve, refCell=-1 refValue=0 outerIter=2
[0] Bidomain phiE solve debug: proc=0 entering solve, refCell=-1 refValue=0 outerIter=2
[1] Bidomain phiE solve debug: proc=1 entering solve, refCell=-1 refValue=0 outerIter=2
[5] Bidomain phiE solve debug: proc=5 entering solve, refCell=-1 refValue=0 outerIter=2
[4] Bidomain phiE solve debug: proc=4 entering solve, refCell=17 refValue=0 outerIter=2
DICPCG:  Solving for phiE, Initial residual = 0.000116638, Final residual = 9.44751e-16, No Iterations 101
[0] Bidomain phiE solve debug: proc=0 completed solve, outerIter=2
[2] Bidomain phiE solve debug: proc=2 completed solve, outerIter=2
[5] Bidomain phiE solve debug: proc=5 completed solve, outerIter=2
[3] Bidomain phiE solve debug: proc=3 completed solve, outerIter=2
[1] Bidomain phiE solve debug: proc=1 completed solve, outerIter=2
[4] Bidomain phiE solve debug: proc=4 completed solve, outerIter=2
DICPCG:  Solving for Vm, Initial residual = 3.52403e-08, Final residual = 1.40723e-17, No Iterations 4
ExecutionTime = 0.03 s  ClockTime = 0 s

Time = 0.00616592

DEBUG cell=0 t=0.00560538→0.00616592 step=0.000560538 V=-0.998896 u1=0.00996936 u2=0.992798 u3=0 Iion=1.56798
DEBUG cell=0 t=0.00560538→0.00616592 step=0.00504484 V=-0.998896 u1=0.0102533 u2=0.992245 u3=0 Iion=1.56785
[3] Bidomain phiE reference debug: proc=3 point=(0.125 0.05 0.05) refCell=-1 ownsReference=0
[2] Bidomain phiE reference debug: proc=2 point=(0.125 0.05 0.05) refCell=-1 ownsReference=0
[5] Bidomain phiE reference debug: proc=5 point=(0.125 0.05 0.05) refCell=-1 ownsReference=0
[4] Bidomain phiE reference debug: proc=4 point=(0.125 0.05 0.05) refCell=17 ownsReference=1
[1] Bidomain phiE reference debug: proc=1 point=(0.125 0.05 0.05) refCell=-1 ownsReference=0
[0] Bidomain phiE reference debug: proc=0 point=(0.125 0.05 0.05) refCell=-1 ownsReference=0
Bidomain phiE reference summary: ownerCount=1 ownerProc=4 point=(0.125 0.05 0.05)
PIMPLE: iteration 1
[3] Bidomain phiE solve debug: proc=3 entering solve, refCell=-1 refValue=0 outerIter=1
[0] Bidomain phiE solve debug: proc=0 entering solve, refCell=-1 refValue=0 outerIter=1
[1] Bidomain phiE solve debug: proc=1 entering solve, refCell=-1 refValue=0 outerIter=1
[5] Bidomain phiE solve debug: proc=5 entering solve, refCell=-1 refValue=0 outerIter=1
[2] Bidomain phiE solve debug: proc=2 entering solve, refCell=-1 refValue=0 outerIter=1
[4] Bidomain phiE solve debug: proc=4 entering solve, refCell=17 refValue=0 outerIter=1
DICPCG:  Solving for phiE, Initial residual = 2.99178e-08, Final residual = 7.78902e-16, No Iterations 86
[0] Bidomain phiE solve debug: proc=0 completed solve, outerIter=1
[3] Bidomain phiE solve debug: proc=3 completed solve, outerIter=1
[2] Bidomain phiE solve debug: proc=2 completed solve, outerIter=1
[5] Bidomain phiE solve debug: proc=5 completed solve, outerIter=1
[1] Bidomain phiE solve debug: proc=1 completed solve, outerIter=1
[4] Bidomain phiE solve debug: proc=4 completed solve, outerIter=1
DICPCG:  Solving for Vm, Initial residual = 0.000137307, Final residual = 5.00042e-16, No Iterations 5
PIMPLE: iteration 2
[3] Bidomain phiE solve debug: proc=3 entering solve, refCell=-1 refValue=0 outerIter=2
[0] Bidomain phiE solve debug: proc=0 entering solve, refCell=-1 refValue=0 outerIter=2
[2] Bidomain phiE solve debug: proc=2 entering solve, refCell=-1 refValue=0 outerIter=2
[4] Bidomain phiE solve debug: proc=4 entering solve, refCell=17 refValue=0 outerIter=2
[5] Bidomain phiE solve debug: proc=5 entering solve, refCell=-1 refValue=0 outerIter=2
[1] Bidomain phiE solve debug: proc=1 entering solve, refCell=-1 refValue=0 outerIter=2
DICPCG:  Solving for phiE, Initial residual = 0.000116572, Final residual = 9.44197e-16, No Iterations 101
[0] Bidomain phiE solve debug: proc=0 completed solve, outerIter=2
[3] Bidomain phiE solve debug: proc=3 completed solve, outerIter=2
[5] Bidomain phiE solve debug: proc=5 completed solve, outerIter=2
[1] Bidomain phiE solve debug: proc=1 completed solve, outerIter=2
[2] Bidomain phiE solve debug: proc=2 completed solve, outerIter=2
[4] Bidomain phiE solve debug: proc=4 completed solve, outerIter=2
DICPCG:  Solving for Vm, Initial residual = 3.52204e-08, Final residual = 1.40643e-17, No Iterations 4
ExecutionTime = 0.03 s  ClockTime = 0 s

Time = 0.00672646

DEBUG cell=0 t=0.00616592→0.00672646 step=0.000560538 V=-0.999171 u1=0.0102533 u2=0.992245 u3=0 Iion=1.56785
DEBUG cell=0 t=0.00616592→0.00672646 step=0.00504484 V=-0.999171 u1=0.0105372 u2=0.991693 u3=0 Iion=1.56772
[4] Bidomain phiE reference debug: proc=4 point=(0.125 0.05 0.05) refCell=17 ownsReference=1
[0] Bidomain phiE reference debug: proc=0 point=(0.125 0.05 0.05) refCell=-1 ownsReference=0
[3] Bidomain phiE reference debug: proc=3 point=(0.125 0.05 0.05) refCell=-1 ownsReference=0
[5] Bidomain phiE reference debug: proc=5 point=(0.125 0.05 0.05) refCell=-1 ownsReference=0
[1] Bidomain phiE reference debug: proc=1 point=(0.125 0.05 0.05) refCell=-1 ownsReference=0
[2] Bidomain phiE reference debug: proc=2 point=(0.125 0.05 0.05) refCell=-1 ownsReference=0
Bidomain phiE reference summary: ownerCount=1 ownerProc=4 point=(0.125 0.05 0.05)
PIMPLE: iteration 1
[0] Bidomain phiE solve debug: proc=0 entering solve, refCell=-1 refValue=0 outerIter=1
[3] Bidomain phiE solve debug: proc=3 entering solve, refCell=-1 refValue=0 outerIter=1
[4] Bidomain phiE solve debug: proc=4 entering solve, refCell=17 refValue=0 outerIter=1
[5] Bidomain phiE solve debug: proc=5 entering solve, refCell=-1 refValue=0 outerIter=1
[1] Bidomain phiE solve debug: proc=1 entering solve, refCell=-1 refValue=0 outerIter=1
[2] Bidomain phiE solve debug: proc=2 entering solve, refCell=-1 refValue=0 outerIter=1
DICPCG:  Solving for phiE, Initial residual = 2.99009e-08, Final residual = 7.78447e-16, No Iterations 86
[0] Bidomain phiE solve debug: proc=0 completed solve, outerIter=1
[3] Bidomain phiE solve debug: proc=3 completed solve, outerIter=1
[5] Bidomain phiE solve debug: proc=5 completed solve, outerIter=1
[1] Bidomain phiE solve debug: proc=1 completed solve, outerIter=1
[4] Bidomain phiE solve debug: proc=4 completed solve, outerIter=1
[2] Bidomain phiE solve debug: proc=2 completed solve, outerIter=1
DICPCG:  Solving for Vm, Initial residual = 0.00013723, Final residual = 4.9976e-16, No Iterations 5
PIMPLE: iteration 2
[0] Bidomain phiE solve debug: proc=0 entering solve, refCell=-1 refValue=0 outerIter=2
[3] Bidomain phiE solve debug: proc=3 entering solve, refCell=-1 refValue=0 outerIter=2
[5] Bidomain phiE solve debug: proc=5 entering solve, refCell=-1 refValue=0 outerIter=2
[4] Bidomain phiE solve debug: proc=4 entering solve, refCell=17 refValue=0 outerIter=2
[1] Bidomain phiE solve debug: proc=1 entering solve, refCell=-1 refValue=0 outerIter=2
[2] Bidomain phiE solve debug: proc=2 entering solve, refCell=-1 refValue=0 outerIter=2
DICPCG:  Solving for phiE, Initial residual = 0.000116506, Final residual = 9.43643e-16, No Iterations 101
[0] Bidomain phiE solve debug: proc=0 completed solve, outerIter=2
[4] Bidomain phiE solve debug: proc=4 completed solve, outerIter=2
[3] Bidomain phiE solve debug: proc=3 completed solve, outerIter=2
[2] Bidomain phiE solve debug: proc=2 completed solve, outerIter=2
[1] Bidomain phiE solve debug: proc=1 completed solve, outerIter=2
[5] Bidomain phiE solve debug: proc=5 completed solve, outerIter=2
DICPCG:  Solving for Vm, Initial residual = 3.52005e-08, Final residual = 1.40564e-17, No Iterations 4
ExecutionTime = 0.04 s  ClockTime = 0 s

Time = 0.00728699

DEBUG cell=0 t=0.00672646→0.00728699 step=0.000560538 V=-0.999445 u1=0.0105372 u2=0.991693 u3=0 Iion=1.56772
DEBUG cell=0 t=0.00672646→0.00728699 step=0.00504484 V=-0.999445 u1=0.0108213 u2=0.991141 u3=0 Iion=1.5676
[4] Bidomain phiE reference debug: proc=4 point=(0.125 0.05 0.05) refCell=17 ownsReference=1
[3] Bidomain phiE reference debug: proc=3 point=(0.125 0.05 0.05) refCell=-1 ownsReference=0
[1] Bidomain phiE reference debug: proc=1 point=(0.125 0.05 0.05) refCell=-1 ownsReference=0
[0] Bidomain phiE reference debug: proc=0 point=(0.125 0.05 0.05) refCell=-1 ownsReference=0
Bidomain phiE reference summary: ownerCount=1 ownerProc=4 point=(0.125 0.05 0.05)
PIMPLE: iteration 1
[2] Bidomain phiE reference debug: proc=2 point=(0.125 0.05 0.05) refCell=-1 ownsReference=0
[5] Bidomain phiE reference debug: proc=5 point=(0.125 0.05 0.05) refCell=-1 ownsReference=0
[3] Bidomain phiE solve debug: proc=3 entering solve, refCell=-1 refValue=0 outerIter=1
[2] Bidomain phiE solve debug: proc=2 entering solve, refCell=-1 refValue=0 outerIter=1
[5] Bidomain phiE solve debug: proc=5 entering solve, refCell=-1 refValue=0 outerIter=1
[1] Bidomain phiE solve debug: proc=1 entering solve, refCell=-1 refValue=0 outerIter=1
[4] Bidomain phiE solve debug: proc=4 entering solve, refCell=17 refValue=0 outerIter=1
[0] Bidomain phiE solve debug: proc=0 entering solve, refCell=-1 refValue=0 outerIter=1
DICPCG:  Solving for phiE, Initial residual = 2.9884e-08, Final residual = 7.77993e-16, No Iterations 86
[3] Bidomain phiE solve debug: proc=3 completed solve, outerIter=1
[2] Bidomain phiE solve debug: proc=2 completed solve, outerIter=1
[5] Bidomain phiE solve debug: proc=5 completed solve, outerIter=1
[4] Bidomain phiE solve debug: proc=4 completed solve, outerIter=1
[1] Bidomain phiE solve debug: proc=1 completed solve, outerIter=1
[0] Bidomain phiE solve debug: proc=0 completed solve, outerIter=1
DICPCG:  Solving for Vm, Initial residual = 0.000137152, Final residual = 4.99477e-16, No Iterations 5
PIMPLE: iteration 2
[3] Bidomain phiE solve debug: proc=3 entering solve, refCell=-1 refValue=0 outerIter=2
[2] Bidomain phiE solve debug: proc=2 entering solve, refCell=-1 refValue=0 outerIter=2
[0] Bidomain phiE solve debug: proc=0 entering solve, refCell=-1 refValue=0 outerIter=2
[4] Bidomain phiE solve debug: proc=4 entering solve, refCell=17 refValue=0 outerIter=2
[1] Bidomain phiE solve debug: proc=1 entering solve, refCell=-1 refValue=0 outerIter=2
[5] Bidomain phiE solve debug: proc=5 entering solve, refCell=-1 refValue=0 outerIter=2
DICPCG:  Solving for phiE, Initial residual = 0.00011644, Final residual = 9.43091e-16, No Iterations 101
[0] Bidomain phiE solve debug: proc=0 completed solve, outerIter=2
[3] Bidomain phiE solve debug: proc=3 completed solve, outerIter=2
[2] Bidomain phiE solve debug: proc=2 completed solve, outerIter=2
[5] Bidomain phiE solve debug: proc=5 completed solve, outerIter=2
[4] Bidomain phiE solve debug: proc=4 completed solve, outerIter=2
[1] Bidomain phiE solve debug: proc=1 completed solve, outerIter=2
DICPCG:  Solving for Vm, Initial residual = 3.51807e-08, Final residual = 1.40484e-17, No Iterations 4
ExecutionTime = 0.04 s  ClockTime = 0 s

Time = 0.00784753

DEBUG cell=0 t=0.00728699→0.00784753 step=0.000560538 V=-0.999719 u1=0.0108213 u2=0.991141 u3=0 Iion=1.5676
DEBUG cell=0 t=0.00728699→0.00784753 step=0.00504484 V=-0.999719 u1=0.0111054 u2=0.99059 u3=0 Iion=1.56747
[3] Bidomain phiE reference debug: proc=3 point=(0.125 0.05 0.05) refCell=-1 ownsReference=0
[4] Bidomain phiE reference debug: proc=4 point=(0.125 0.05 0.05) refCell=17 ownsReference=1
[2] Bidomain phiE reference debug: proc=2 point=(0.125 0.05 0.05) refCell=-1 ownsReference=0
[1] Bidomain phiE reference debug: proc=1 point=(0.125 0.05 0.05) refCell=-1 ownsReference=0
[5] Bidomain phiE reference debug: proc=5 point=(0.125 0.05 0.05) refCell=-1 ownsReference=0
[0] Bidomain phiE reference debug: proc=0 point=(0.125 0.05 0.05) refCell=-1 ownsReference=0
Bidomain phiE reference summary: ownerCount=1 ownerProc=4 point=(0.125 0.05 0.05)
PIMPLE: iteration 1
[3] Bidomain phiE solve debug: proc=3 entering solve, refCell=-1 refValue=0 outerIter=1
[0] Bidomain phiE solve debug: proc=0 entering solve, refCell=-1 refValue=0 outerIter=1
[4] Bidomain phiE solve debug: proc=4 entering solve, refCell=17 refValue=0 outerIter=1
[2] Bidomain phiE solve debug: proc=2 entering solve, refCell=-1 refValue=0 outerIter=1
[5] Bidomain phiE solve debug: proc=5 entering solve, refCell=-1 refValue=0 outerIter=1
[1] Bidomain phiE solve debug: proc=1 entering solve, refCell=-1 refValue=0 outerIter=1
DICPCG:  Solving for phiE, Initial residual = 2.98672e-08, Final residual = 7.77535e-16, No Iterations 86
[0] Bidomain phiE solve debug: proc=0 completed solve, outerIter=1
[3] Bidomain phiE solve debug: proc=3 completed solve, outerIter=1
[2] Bidomain phiE solve debug: proc=2 completed solve, outerIter=1
[5] Bidomain phiE solve debug: proc=5 completed solve, outerIter=1
[4] Bidomain phiE solve debug: proc=4 completed solve, outerIter=1
[1] Bidomain phiE solve debug: proc=1 completed solve, outerIter=1
DICPCG:  Solving for Vm, Initial residual = 0.000137075, Final residual = 4.99196e-16, No Iterations 5
PIMPLE: iteration 2
[3] Bidomain phiE solve debug: proc=3 entering solve, refCell=-1 refValue=0 outerIter=2
[0] Bidomain phiE solve debug: proc=0 entering solve, refCell=-1 refValue=0 outerIter=2
[2] Bidomain phiE solve debug: proc=2 entering solve, refCell=-1 refValue=0 outerIter=2
[4] Bidomain phiE solve debug: proc=4 entering solve, refCell=17 refValue=0 outerIter=2
[5] Bidomain phiE solve debug: proc=5 entering solve, refCell=-1 refValue=0 outerIter=2
[1] Bidomain phiE solve debug: proc=1 entering solve, refCell=-1 refValue=0 outerIter=2
DICPCG:  Solving for phiE, Initial residual = 0.000116374, Final residual = 9.42539e-16, No Iterations 101
[0] Bidomain phiE solve debug: proc=0 completed solve, outerIter=2
[3] Bidomain phiE solve debug: proc=3 completed solve, outerIter=2
[2] Bidomain phiE solve debug: proc=2 completed solve, outerIter=2
[5] Bidomain phiE solve debug: proc=5 completed solve, outerIter=2
[4] Bidomain phiE solve debug: proc=4 completed solve, outerIter=2
[1] Bidomain phiE solve debug: proc=1 completed solve, outerIter=2
DICPCG:  Solving for Vm, Initial residual = 3.51608e-08, Final residual = 1.40405e-17, No Iterations 4
ExecutionTime = 0.04 s  ClockTime = 0 s

Time = 0.00840807

DEBUG cell=0 t=0.00784753→0.00840807 step=0.000560538 V=-0.999993 u1=0.0111054 u2=0.99059 u3=0 Iion=1.56747
DEBUG cell=0 t=0.00784753→0.00840807 step=0.00504484 V=-0.999993 u1=0.0113896 u2=0.990039 u3=0 Iion=1.56735
[3] Bidomain phiE reference debug: proc=3 point=(0.125 0.05 0.05) refCell=-1 ownsReference=0
[2] Bidomain phiE reference debug: proc=2 point=(0.125 0.05 0.05) refCell=-1 ownsReference=0
[4] Bidomain phiE reference debug: proc=4 point=(0.125 0.05 0.05) refCell=17 ownsReference=1
[5] Bidomain phiE reference debug: proc=5 point=(0.125 0.05 0.05) refCell=-1 ownsReference=0
[1] Bidomain phiE reference debug: proc=1 point=(0.125 0.05 0.05) refCell=-1 ownsReference=0
[0] Bidomain phiE reference debug: proc=0 point=(0.125 0.05 0.05) refCell=-1 ownsReference=0
Bidomain phiE reference summary: ownerCount=1 ownerProc=4 point=(0.125 0.05 0.05)
PIMPLE: iteration 1
[3] Bidomain phiE solve debug: proc=3 entering solve, refCell=-1 refValue=0 outerIter=1
[0] Bidomain phiE solve debug: proc=0 entering solve, refCell=-1 refValue=0 outerIter=1
[4] Bidomain phiE solve debug: proc=4 entering solve, refCell=17 refValue=0 outerIter=1
[2] Bidomain phiE solve debug: proc=2 entering solve, refCell=-1 refValue=0 outerIter=1
[5] Bidomain phiE solve debug: proc=5 entering solve, refCell=-1 refValue=0 outerIter=1
[1] Bidomain phiE solve debug: proc=1 entering solve, refCell=-1 refValue=0 outerIter=1
DICPCG:  Solving for phiE, Initial residual = 2.98503e-08, Final residual = 7.77088e-16, No Iterations 86
[0] Bidomain phiE solve debug: proc=0 completed solve, outerIter=1
[3] Bidomain phiE solve debug: proc=3 completed solve, outerIter=1
[5] Bidomain phiE solve debug: proc=5 completed solve, outerIter=1
[2] Bidomain phiE solve debug: proc=2 completed solve, outerIter=1
[4] Bidomain phiE solve debug: proc=4 completed solve, outerIter=1
[1] Bidomain phiE solve debug: proc=1 completed solve, outerIter=1
DICPCG:  Solving for Vm, Initial residual = 0.000136998, Final residual = 4.98914e-16, No Iterations 5
PIMPLE: iteration 2
[3] Bidomain phiE solve debug: proc=3 entering solve, refCell=-1 refValue=0 outerIter=2
[0] Bidomain phiE solve debug: proc=0 entering solve, refCell=-1 refValue=0 outerIter=2
[4] Bidomain phiE solve debug: proc=4 entering solve, refCell=17 refValue=0 outerIter=2
[2] Bidomain phiE solve debug: proc=2 entering solve, refCell=-1 refValue=0 outerIter=2
[5] Bidomain phiE solve debug: proc=5 entering solve, refCell=-1 refValue=0 outerIter=2
[1] Bidomain phiE solve debug: proc=1 entering solve, refCell=-1 refValue=0 outerIter=2
DICPCG:  Solving for phiE, Initial residual = 0.000116309, Final residual = 9.41988e-16, No Iterations 101
[0] Bidomain phiE solve debug: proc=0 completed solve, outerIter=2
[2] Bidomain phiE solve debug: proc=2 completed solve, outerIter=2
[3] Bidomain phiE solve debug: proc=3 completed solve, outerIter=2
[5] Bidomain phiE solve debug: proc=5 completed solve, outerIter=2
[1] Bidomain phiE solve debug: proc=1 completed solve, outerIter=2
[4] Bidomain phiE solve debug: proc=4 completed solve, outerIter=2
DICPCG:  Solving for Vm, Initial residual = 3.5141e-08, Final residual = 1.40326e-17, No Iterations 4
ExecutionTime = 0.04 s  ClockTime = 0 s

Time = 0.00896861

DEBUG cell=0 t=0.00840807→0.00896861 step=0.000560538 V=-1.00027 u1=0.0113896 u2=0.990039 u3=0 Iion=1.56735
DEBUG cell=0 t=0.00840807→0.00896861 step=0.00504484 V=-1.00027 u1=0.0116739 u2=0.98949 u3=0 Iion=1.56722
[3] Bidomain phiE reference debug: proc=3 point=(0.125 0.05 0.05) refCell=-1 ownsReference=0
[2] Bidomain phiE reference debug: proc=2 point=(0.125 0.05 0.05) refCell=-1 ownsReference=0
[5] Bidomain phiE reference debug: proc=5 point=(0.125 0.05 0.05) refCell=-1 ownsReference=0
[4] Bidomain phiE reference debug: proc=4 point=(0.125 0.05 0.05) refCell=17 ownsReference=1
[1] Bidomain phiE reference debug: proc=1 point=(0.125 0.05 0.05) refCell=-1 ownsReference=0
[0] Bidomain phiE reference debug: proc=0 point=(0.125 0.05 0.05) refCell=-1 ownsReference=0
Bidomain phiE reference summary: ownerCount=1 ownerProc=4 point=(0.125 0.05 0.05)
PIMPLE: iteration 1
[3] Bidomain phiE solve debug: proc=3 entering solve, refCell=-1 refValue=0 outerIter=1
[2] Bidomain phiE solve debug: proc=2 entering solve, refCell=-1 refValue=0 outerIter=1
[0] Bidomain phiE solve debug: proc=0 entering solve, refCell=-1 refValue=0 outerIter=1
[1] Bidomain phiE solve debug: proc=1 entering solve, refCell=-1 refValue=0 outerIter=1
[5] Bidomain phiE solve debug: proc=5 entering solve, refCell=-1 refValue=0 outerIter=1
[4] Bidomain phiE solve debug: proc=4 entering solve, refCell=17 refValue=0 outerIter=1
DICPCG:  Solving for phiE, Initial residual = 2.98335e-08, Final residual = 7.76632e-16, No Iterations 86
[0] Bidomain phiE solve debug: proc=0 completed solve, outerIter=1
[2] Bidomain phiE solve debug: proc=2 completed solve, outerIter=1
[3] Bidomain phiE solve debug: proc=3 completed solve, outerIter=1
[5] Bidomain phiE solve debug: proc=5 completed solve, outerIter=1
[1] Bidomain phiE solve debug: proc=1 completed solve, outerIter=1
[4] Bidomain phiE solve debug: proc=4 completed solve, outerIter=1
DICPCG:  Solving for Vm, Initial residual = 0.00013692, Final residual = 4.98633e-16, No Iterations 5
PIMPLE: iteration 2
[0] Bidomain phiE solve debug: proc=0 entering solve, refCell=-1 refValue=0 outerIter=2
[2] Bidomain phiE solve debug: proc=2 entering solve, refCell=-1 refValue=0 outerIter=2
[3] Bidomain phiE solve debug: proc=3 entering solve, refCell=-1 refValue=0 outerIter=2
[1] Bidomain phiE solve debug: proc=1 entering solve, refCell=-1 refValue=0 outerIter=2
[4] Bidomain phiE solve debug: proc=4 entering solve, refCell=17 refValue=0 outerIter=2
[5] Bidomain phiE solve debug: proc=5 entering solve, refCell=-1 refValue=0 outerIter=2
DICPCG:  Solving for phiE, Initial residual = 0.000116243, Final residual = 9.41437e-16, No Iterations 101
[0] Bidomain phiE solve debug: proc=0 completed solve, outerIter=2
[2] Bidomain phiE solve debug: proc=2 completed solve, outerIter=2
[3] Bidomain phiE solve debug: proc=3 completed solve, outerIter=2
[5] Bidomain phiE solve debug: proc=5 completed solve, outerIter=2
[1] Bidomain phiE solve debug: proc=1 completed solve, outerIter=2
[4] Bidomain phiE solve debug: proc=4 completed solve, outerIter=2
DICPCG:  Solving for Vm, Initial residual = 3.51212e-08, Final residual = 1.40247e-17, No Iterations 4
ExecutionTime = 0.04 s  ClockTime = 0 s

Time = 0.00952915

DEBUG cell=0 t=0.00896861→0.00952915 step=0.000560538 V=-1.00054 u1=0.0116739 u2=0.98949 u3=0 Iion=1.56722
DEBUG cell=0 t=0.00896861→0.00952915 step=0.00504484 V=-1.00054 u1=0.0119583 u2=0.98894 u3=0 Iion=1.5671
[4] Bidomain phiE reference debug: proc=4 point=(0.125 0.05 0.05) refCell=17 ownsReference=1
[1] Bidomain phiE reference debug: proc=1 point=(0.125 0.05 0.05) refCell=-1 ownsReference=0
[0] Bidomain phiE reference debug: proc=0 point=(0.125 0.05 0.05) refCell=-1 ownsReference=0
Bidomain phiE reference summary: ownerCount=1 ownerProc=4 point=(0.125 0.05 0.05)
PIMPLE: iteration 1
[2] Bidomain phiE reference debug: proc=2 point=(0.125 0.05 0.05) refCell=-1 ownsReference=0
[5] Bidomain phiE reference debug: proc=5 point=(0.125 0.05 0.05) refCell=-1 ownsReference=0
[3] Bidomain phiE reference debug: proc=3 point=(0.125 0.05 0.05) refCell=-1 ownsReference=0
[0] Bidomain phiE solve debug: proc=0 entering solve, refCell=-1 refValue=0 outerIter=1
[1] Bidomain phiE solve debug: proc=1 entering solve, refCell=-1 refValue=0 outerIter=1
[4] Bidomain phiE solve debug: proc=4 entering solve, refCell=17 refValue=0 outerIter=1
[2] Bidomain phiE solve debug: proc=2 entering solve, refCell=-1 refValue=0 outerIter=1
[5] Bidomain phiE solve debug: proc=5 entering solve, refCell=-1 refValue=0 outerIter=1
[3] Bidomain phiE solve debug: proc=3 entering solve, refCell=-1 refValue=0 outerIter=1
DICPCG:  Solving for phiE, Initial residual = 2.98167e-08, Final residual = 7.76178e-16, No Iterations 86
[0] Bidomain phiE solve debug: proc=0 completed solve, outerIter=1
[2] Bidomain phiE solve debug: proc=2 completed solve, outerIter=1
[5] Bidomain phiE solve debug: proc=5 completed solve, outerIter=1
[3] Bidomain phiE solve debug: proc=3 completed solve, outerIter=1
[1] Bidomain phiE solve debug: proc=1 completed solve, outerIter=1
[4] Bidomain phiE solve debug: proc=4 completed solve, outerIter=1
DICPCG:  Solving for Vm, Initial residual = 0.000136843, Final residual = 4.98352e-16, No Iterations 5
PIMPLE: iteration 2
[0] Bidomain phiE solve debug: proc=0 entering solve, refCell=-1 refValue=0 outerIter=2
[1] Bidomain phiE solve debug: proc=1 entering solve, refCell=-1 refValue=0 outerIter=2
[4] Bidomain phiE solve debug: proc=4 entering solve, refCell=17 refValue=0 outerIter=2
[2] Bidomain phiE solve debug: proc=2 entering solve, refCell=-1 refValue=0 outerIter=2
[5] Bidomain phiE solve debug: proc=5 entering solve, refCell=-1 refValue=0 outerIter=2
[3] Bidomain phiE solve debug: proc=3 entering solve, refCell=-1 refValue=0 outerIter=2
DICPCG:  Solving for phiE, Initial residual = 0.000116178, Final residual = 9.40887e-16, No Iterations 101
[5] Bidomain phiE solve debug: proc=5 completed solve, outerIter=2
[2] Bidomain phiE solve debug: proc=2 completed solve, outerIter=2
[3] Bidomain phiE solve debug: proc=3 completed solve, outerIter=2
[0] Bidomain phiE solve debug: proc=0 completed solve, outerIter=2
[1] Bidomain phiE solve debug: proc=1 completed solve, outerIter=2
[4] Bidomain phiE solve debug: proc=4 completed solve, outerIter=2
DICPCG:  Solving for Vm, Initial residual = 3.51015e-08, Final residual = 1.40168e-17, No Iterations 4
ExecutionTime = 0.04 s  ClockTime = 0 s

Time = 0.0100897

DEBUG cell=0 t=0.00952915→0.0100897 step=0.000560538 V=-1.00082 u1=0.0119583 u2=0.98894 u3=0 Iion=1.5671
DEBUG cell=0 t=0.00952915→0.0100897 step=0.00504484 V=-1.00082 u1=0.0122427 u2=0.988392 u3=0 Iion=1.56697
[2] Bidomain phiE reference debug: proc=2 point=(0.125 0.05 0.05) refCell=-1 ownsReference=0
[3] Bidomain phiE reference debug: proc=3 point=(0.125 0.05 0.05) refCell=-1 ownsReference=0
[5] Bidomain phiE reference debug: proc=5 point=(0.125 0.05 0.05) refCell=-1 ownsReference=0
[4] Bidomain phiE reference debug: proc=4 point=(0.125 0.05 0.05) refCell=17 ownsReference=1
[1] Bidomain phiE reference debug: proc=1 point=(0.125 0.05 0.05) refCell=-1 ownsReference=0
[0] Bidomain phiE reference debug: proc=0 point=(0.125 0.05 0.05) refCell=-1 ownsReference=0
Bidomain phiE reference summary: ownerCount=1 ownerProc=4 point=(0.125 0.05 0.05)
PIMPLE: iteration 1
[1] Bidomain phiE solve debug: proc=1 entering solve, refCell=-1 refValue=0 outerIter=1
[4] Bidomain phiE solve debug: proc=4 entering solve, refCell=17 refValue=0 outerIter=1
[2] Bidomain phiE solve debug: proc=2 entering solve, refCell=-1 refValue=0 outerIter=1
[0] Bidomain phiE solve debug: proc=0 entering solve, refCell=-1 refValue=0 outerIter=1
[3] Bidomain phiE solve debug: proc=3 entering solve, refCell=-1 refValue=0 outerIter=1
[5] Bidomain phiE solve debug: proc=5 entering solve, refCell=-1 refValue=0 outerIter=1
DICPCG:  Solving for phiE, Initial residual = 2.97999e-08, Final residual = 7.75727e-16, No Iterations 86
[0] Bidomain phiE solve debug: proc=0 completed solve, outerIter=1
[5] Bidomain phiE solve debug: proc=5 completed solve, outerIter=1
[2] Bidomain phiE solve debug: proc=2 completed solve, outerIter=1
[1] Bidomain phiE solve debug: proc=1 completed solve, outerIter=1
[4] Bidomain phiE solve debug: proc=4 completed solve, outerIter=1
[3] Bidomain phiE solve debug: proc=3 completed solve, outerIter=1
DICPCG:  Solving for Vm, Initial residual = 0.000136766, Final residual = 4.98071e-16, No Iterations 5
PIMPLE: iteration 2
[0] Bidomain phiE solve debug: proc=0 entering solve, refCell=-1 refValue=0 outerIter=2
[1] Bidomain phiE solve debug: proc=1 entering solve, refCell=-1 refValue=0 outerIter=2
[4] Bidomain phiE solve debug: proc=4 entering solve, refCell=17 refValue=0 outerIter=2
[2] Bidomain phiE solve debug: proc=2 entering solve, refCell=-1 refValue=0 outerIter=2
[5] Bidomain phiE solve debug: proc=5 entering solve, refCell=-1 refValue=0 outerIter=2
[3] Bidomain phiE solve debug: proc=3 entering solve, refCell=-1 refValue=0 outerIter=2
DICPCG:  Solving for phiE, Initial residual = 0.000116113, Final residual = 9.40338e-16, No Iterations 101
[0] Bidomain phiE solve debug: proc=0 completed solve, outerIter=2
[3] Bidomain phiE solve debug: proc=3 completed solve, outerIter=2
[4] Bidomain phiE solve debug: proc=4 completed solve, outerIter=2
[2] Bidomain phiE solve debug: proc=2 completed solve, outerIter=2
[5] Bidomain phiE solve debug: proc=5 completed solve, outerIter=2
[1] Bidomain phiE solve debug: proc=1 completed solve, outerIter=2
DICPCG:  Solving for Vm, Initial residual = 3.50817e-08, Final residual = 1.40089e-17, No Iterations 4
ExecutionTime = 0.05 s  ClockTime = 0 s

Time = 0.0106502

DEBUG cell=0 t=0.0100897→0.0106502 step=0.000560538 V=-1.00109 u1=0.0122427 u2=0.988392 u3=0 Iion=1.56697
DEBUG cell=0 t=0.0100897→0.0106502 step=0.00504484 V=-1.00109 u1=0.0125272 u2=0.987844 u3=0 Iion=1.56685
[5] Bidomain phiE reference debug: proc=5 point=(0.125 0.05 0.05) refCell=-1 ownsReference=0
[2] Bidomain phiE reference debug: proc=2 point=(0.125 0.05 0.05) refCell=-1 ownsReference=0
[3] Bidomain phiE reference debug: proc=3 point=(0.125 0.05 0.05) refCell=-1 ownsReference=0
[4] Bidomain phiE reference debug: proc=4 point=(0.125 0.05 0.05) refCell=17 ownsReference=1
[1] Bidomain phiE reference debug: proc=1 point=(0.125 0.05 0.05) refCell=-1 ownsReference=0
[0] Bidomain phiE reference debug: proc=0 point=(0.125 0.05 0.05) refCell=-1 ownsReference=0
Bidomain phiE reference summary: ownerCount=1 ownerProc=4 point=(0.125 0.05 0.05)
PIMPLE: iteration 1
[2] Bidomain phiE solve debug: proc=2 entering solve, refCell=-1 refValue=0 outerIter=1
[3] Bidomain phiE solve debug: proc=3 entering solve, refCell=-1 refValue=0 outerIter=1
[0] Bidomain phiE solve debug: proc=0 entering solve, refCell=-1 refValue=0 outerIter=1
[5] Bidomain phiE solve debug: proc=5 entering solve, refCell=-1 refValue=0 outerIter=1
[1] Bidomain phiE solve debug: proc=1 entering solve, refCell=-1 refValue=0 outerIter=1
[4] Bidomain phiE solve debug: proc=4 entering solve, refCell=17 refValue=0 outerIter=1
DICPCG:  Solving for phiE, Initial residual = 2.97832e-08, Final residual = 7.75277e-16, No Iterations 86
[0] Bidomain phiE solve debug: proc=0 completed solve, outerIter=1
[2] Bidomain phiE solve debug: proc=2 completed solve, outerIter=1
[3] Bidomain phiE solve debug: proc=3 completed solve, outerIter=1
[5] Bidomain phiE solve debug: proc=5 completed solve, outerIter=1
[1] Bidomain phiE solve debug: proc=1 completed solve, outerIter=1
[4] Bidomain phiE solve debug: proc=4 completed solve, outerIter=1
DICPCG:  Solving for Vm, Initial residual = 0.000136689, Final residual = 4.97791e-16, No Iterations 5
PIMPLE: iteration 2
[3] Bidomain phiE solve debug: proc=3 entering solve, refCell=-1 refValue=0 outerIter=2
[5] Bidomain phiE solve debug: proc=5 entering solve, refCell=-1 refValue=0 outerIter=2
[2] Bidomain phiE solve debug: proc=2 entering solve, refCell=-1 refValue=0 outerIter=2
[0] Bidomain phiE solve debug: proc=0 entering solve, refCell=-1 refValue=0 outerIter=2
[4] Bidomain phiE solve debug: proc=4 entering solve, refCell=17 refValue=0 outerIter=2
[1] Bidomain phiE solve debug: proc=1 entering solve, refCell=-1 refValue=0 outerIter=2
DICPCG:  Solving for phiE, Initial residual = 0.000116047, Final residual = 9.39789e-16, No Iterations 101
[0] Bidomain phiE solve debug: proc=0 completed solve, outerIter=2
[5] Bidomain phiE solve debug: proc=5 completed solve, outerIter=2
[2] Bidomain phiE solve debug: proc=2 completed solve, outerIter=2
[3] Bidomain phiE solve debug: proc=3 completed solve, outerIter=2
[1] Bidomain phiE solve debug: proc=1 completed solve, outerIter=2
[4] Bidomain phiE solve debug: proc=4 completed solve, outerIter=2
DICPCG:  Solving for Vm, Initial residual = 3.5062e-08, Final residual = 1.4001e-17, No Iterations 4
ExecutionTime = 0.05 s  ClockTime = 0 s

Time = 0.0112108

DEBUG cell=0 t=0.0106502→0.0112108 step=0.000560538 V=-1.00136 u1=0.0125272 u2=0.987844 u3=0 Iion=1.56685
DEBUG cell=0 t=0.0106502→0.0112108 step=0.00504484 V=-1.00136 u1=0.0128118 u2=0.987296 u3=0 Iion=1.56673
[2] Bidomain phiE reference debug: proc=2 point=(0.125 0.05 0.05) refCell=-1 ownsReference=0
[5] Bidomain phiE reference debug: proc=5 point=(0.125 0.05 0.05) refCell=-1 ownsReference=0
[3] Bidomain phiE reference debug: proc=3 point=(0.125 0.05 0.05) refCell=-1 ownsReference=0
[4] Bidomain phiE reference debug: proc=4 point=(0.125 0.05 0.05) refCell=17 ownsReference=1
[1] Bidomain phiE reference debug: proc=1 point=(0.125 0.05 0.05) refCell=-1 ownsReference=0
[0] Bidomain phiE reference debug: proc=0 point=(0.125 0.05 0.05) refCell=-1 ownsReference=0
Bidomain phiE reference summary: ownerCount=1 ownerProc=4 point=(0.125 0.05 0.05)
PIMPLE: iteration 1
[3] Bidomain phiE solve debug: proc=3 entering solve, refCell=-1 refValue=0 outerIter=1
[0] Bidomain phiE solve debug: proc=0 entering solve, refCell=-1 refValue=0 outerIter=1
[2] Bidomain phiE solve debug: proc=2 entering solve, refCell=-1 refValue=0 outerIter=1
[5] Bidomain phiE solve debug: proc=5 entering solve, refCell=-1 refValue=0 outerIter=1
[4] Bidomain phiE solve debug: proc=4 entering solve, refCell=17 refValue=0 outerIter=1
[1] Bidomain phiE solve debug: proc=1 entering solve, refCell=-1 refValue=0 outerIter=1
DICPCG:  Solving for phiE, Initial residual = 2.97664e-08, Final residual = 7.74825e-16, No Iterations 86
[0] Bidomain phiE solve debug: proc=0 completed solve, outerIter=1
[2] Bidomain phiE solve debug: proc=2 completed solve, outerIter=1
[5] Bidomain phiE solve debug: proc=5 completed solve, outerIter=1
[3] Bidomain phiE solve debug: proc=3 completed solve, outerIter=1
[1] Bidomain phiE solve debug: proc=1 completed solve, outerIter=1
[4] Bidomain phiE solve debug: proc=4 completed solve, outerIter=1
DICPCG:  Solving for Vm, Initial residual = 0.000136613, Final residual = 4.97511e-16, No Iterations 5
PIMPLE: iteration 2
[0] Bidomain phiE solve debug: proc=0 entering solve, refCell=-1 refValue=0 outerIter=2
[2] Bidomain phiE solve debug: proc=2 entering solve, refCell=-1 refValue=0 outerIter=2
[3] Bidomain phiE solve debug: proc=3 entering solve, refCell=-1 refValue=0 outerIter=2
[1] Bidomain phiE solve debug: proc=1 entering solve, refCell=-1 refValue=0 outerIter=2
[4] Bidomain phiE solve debug: proc=4 entering solve, refCell=17 refValue=0 outerIter=2
[5] Bidomain phiE solve debug: proc=5 entering solve, refCell=-1 refValue=0 outerIter=2
DICPCG:  Solving for phiE, Initial residual = 0.000115982, Final residual = 9.39241e-16, No Iterations 101
[0] Bidomain phiE solve debug: proc=0 completed solve, outerIter=2
[3] Bidomain phiE solve debug: proc=3 completed solve, outerIter=2
[2] Bidomain phiE solve debug: proc=2 completed solve, outerIter=2
[1] Bidomain phiE solve debug: proc=1 completed solve, outerIter=2
[4] Bidomain phiE solve debug: proc=4 completed solve, outerIter=2
[5] Bidomain phiE solve debug: proc=5 completed solve, outerIter=2
DICPCG:  Solving for Vm, Initial residual = 3.50423e-08, Final residual = 1.39931e-17, No Iterations 4
ExecutionTime = 0.05 s  ClockTime = 0 s

Time = 0.0117713

DEBUG cell=0 t=0.0112108→0.0117713 step=0.000560538 V=-1.00164 u1=0.0128118 u2=0.987296 u3=0 Iion=1.56673
DEBUG cell=0 t=0.0112108→0.0117713 step=0.00504484 V=-1.00164 u1=0.0130965 u2=0.986749 u3=0 Iion=1.5666
[3] Bidomain phiE reference debug: proc=3 point=(0.125 0.05 0.05) refCell=-1 ownsReference=0
[4] Bidomain phiE reference debug: proc=4 point=(0.125 0.05 0.05) refCell=17 ownsReference=1
[2] Bidomain phiE reference debug: proc=2 point=(0.125 0.05 0.05) refCell=-1 ownsReference=0
[1] Bidomain phiE reference debug: proc=1 point=(0.125 0.05 0.05) refCell=-1 ownsReference=0
[5] Bidomain phiE reference debug: proc=5 point=(0.125 0.05 0.05) refCell=-1 ownsReference=0
[0] Bidomain phiE reference debug: proc=0 point=(0.125 0.05 0.05) refCell=-1 ownsReference=0
Bidomain phiE reference summary: ownerCount=1 ownerProc=4 point=(0.125 0.05 0.05)
PIMPLE: iteration 1
[2] Bidomain phiE solve debug: proc=2 entering solve, refCell=-1 refValue=0 outerIter=1
[4] Bidomain phiE solve debug: proc=4 entering solve, refCell=17 refValue=0 outerIter=1
[3] Bidomain phiE solve debug: proc=3 entering solve, refCell=-1 refValue=0 outerIter=1
[1] Bidomain phiE solve debug: proc=1 entering solve, refCell=-1 refValue=0 outerIter=1
[0] Bidomain phiE solve debug: proc=0 entering solve, refCell=-1 refValue=0 outerIter=1
[5] Bidomain phiE solve debug: proc=5 entering solve, refCell=-1 refValue=0 outerIter=1
DICPCG:  Solving for phiE, Initial residual = 2.97497e-08, Final residual = 7.74374e-16, No Iterations 86
[0] Bidomain phiE solve debug: proc=0 completed solve, outerIter=1
[2] Bidomain phiE solve debug: proc=2 completed solve, outerIter=1
[3] Bidomain phiE solve debug: proc=3 completed solve, outerIter=1
[5] Bidomain phiE solve debug: proc=5 completed solve, outerIter=1
[4] Bidomain phiE solve debug: proc=4 completed solve, outerIter=1
[1] Bidomain phiE solve debug: proc=1 completed solve, outerIter=1
DICPCG:  Solving for Vm, Initial residual = 0.000136536, Final residual = 4.97232e-16, No Iterations 5
PIMPLE: iteration 2
[3] Bidomain phiE solve debug: proc=3 entering solve, refCell=-1 refValue=0 outerIter=2
[2] Bidomain phiE solve debug: proc=2 entering solve, refCell=-1 refValue=0 outerIter=2
[0] Bidomain phiE solve debug: proc=0 entering solve, refCell=-1 refValue=0 outerIter=2
[4] Bidomain phiE solve debug: proc=4 entering solve, refCell=17 refValue=0 outerIter=2
[5] Bidomain phiE solve debug: proc=5 entering solve, refCell=-1 refValue=0 outerIter=2
[1] Bidomain phiE solve debug: proc=1 entering solve, refCell=-1 refValue=0 outerIter=2
DICPCG:  Solving for phiE, Initial residual = 0.000115917, Final residual = 9.38694e-16, No Iterations 101
[0] Bidomain phiE solve debug: proc=0 completed solve, outerIter=2
[2] Bidomain phiE solve debug: proc=2 completed solve, outerIter=2
[3] Bidomain phiE solve debug: proc=3 completed solve, outerIter=2
[1] Bidomain phiE solve debug: proc=1 completed solve, outerIter=2
[5] Bidomain phiE solve debug: proc=5 completed solve, outerIter=2
[4] Bidomain phiE solve debug: proc=4 completed solve, outerIter=2
DICPCG:  Solving for Vm, Initial residual = 3.50226e-08, Final residual = 1.39853e-17, No Iterations 4
ExecutionTime = 0.05 s  ClockTime = 0 s

Time = 0.0123318

DEBUG cell=0 t=0.0117713→0.0123318 step=0.000560538 V=-1.00191 u1=0.0130965 u2=0.986749 u3=0 Iion=1.5666
DEBUG cell=0 t=0.0117713→0.0123318 step=0.00504484 V=-1.00191 u1=0.0133812 u2=0.986203 u3=0 Iion=1.56648
[2] Bidomain phiE reference debug: proc=2 point=(0.125 0.05 0.05) refCell=-1 ownsReference=0
[3] Bidomain phiE reference debug: proc=3 point=(0.125 0.05 0.05) refCell=-1 ownsReference=0
[4] Bidomain phiE reference debug: proc=4 point=(0.125 0.05 0.05) refCell=17 ownsReference=1
[1] Bidomain phiE reference debug: proc=1 point=(0.125 0.05 0.05) refCell=-1 ownsReference=0
[5] Bidomain phiE reference debug: proc=5 point=(0.125 0.05 0.05) refCell=-1 ownsReference=0
[0] Bidomain phiE reference debug: proc=0 point=(0.125 0.05 0.05) refCell=-1 ownsReference=0
Bidomain phiE reference summary: ownerCount=1 ownerProc=4 point=(0.125 0.05 0.05)
PIMPLE: iteration 1
[0] Bidomain phiE solve debug: proc=0 entering solve, refCell=-1 refValue=0 outerIter=1
[2] Bidomain phiE solve debug: proc=2 entering solve, refCell=-1 refValue=0 outerIter=1
[3] Bidomain phiE solve debug: proc=3 entering solve, refCell=-1 refValue=0 outerIter=1
[1] Bidomain phiE solve debug: proc=1 entering solve, refCell=-1 refValue=0 outerIter=1
[5] Bidomain phiE solve debug: proc=5 entering solve, refCell=-1 refValue=0 outerIter=1
[4] Bidomain phiE solve debug: proc=4 entering solve, refCell=17 refValue=0 outerIter=1
DICPCG:  Solving for phiE, Initial residual = 2.9733e-08, Final residual = 7.73928e-16, No Iterations 86
[0] Bidomain phiE solve debug: proc=0 completed solve, outerIter=1
[3] Bidomain phiE solve debug: proc=3 completed solve, outerIter=1
[5] Bidomain phiE solve debug: proc=5 completed solve, outerIter=1
[2] Bidomain phiE solve debug: proc=2 completed solve, outerIter=1
[1] Bidomain phiE solve debug: proc=1 completed solve, outerIter=1
[4] Bidomain phiE solve debug: proc=4 completed solve, outerIter=1
DICPCG:  Solving for Vm, Initial residual = 0.000136459, Final residual = 4.96952e-16, No Iterations 5
PIMPLE: iteration 2
[0] Bidomain phiE solve debug: proc=0 entering solve, refCell=-1 refValue=0 outerIter=2
[2] Bidomain phiE solve debug: proc=2 entering solve, refCell=-1 refValue=0 outerIter=2
[3] Bidomain phiE solve debug: proc=3 entering solve, refCell=-1 refValue=0 outerIter=2
[5] Bidomain phiE solve debug: proc=5 entering solve, refCell=-1 refValue=0 outerIter=2
[1] Bidomain phiE solve debug: proc=1 entering solve, refCell=-1 refValue=0 outerIter=2
[4] Bidomain phiE solve debug: proc=4 entering solve, refCell=17 refValue=0 outerIter=2
DICPCG:  Solving for phiE, Initial residual = 0.000115852, Final residual = 9.38147e-16, No Iterations 101
[0] Bidomain phiE solve debug: proc=0 completed solve, outerIter=2
[1] Bidomain phiE solve debug: proc=1 completed solve, outerIter=2
[4] Bidomain phiE solve debug: proc=4 completed solve, outerIter=2
[5] Bidomain phiE solve debug: proc=5 completed solve, outerIter=2
[2] Bidomain phiE solve debug: proc=2 completed solve, outerIter=2
[3] Bidomain phiE solve debug: proc=3 completed solve, outerIter=2
DICPCG:  Solving for Vm, Initial residual = 3.50029e-08, Final residual = 1.39774e-17, No Iterations 4
ExecutionTime = 0.05 s  ClockTime = 0 s

Time = 0.0128924

DEBUG cell=0 t=0.0123318→0.0128924 step=0.000560538 V=-1.00218 u1=0.0133812 u2=0.986203 u3=0 Iion=1.56648
DEBUG cell=0 t=0.0123318→0.0128924 step=0.00504484 V=-1.00218 u1=0.013666 u2=0.985657 u3=0 Iion=1.56635
[2] Bidomain phiE reference debug: proc=2 point=(0.125 0.05 0.05) refCell=-1 ownsReference=0
[5] Bidomain phiE reference debug: proc=5 point=(0.125 0.05 0.05) refCell=-1 ownsReference=0
[3] Bidomain phiE reference debug: proc=3 point=(0.125 0.05 0.05) refCell=-1 ownsReference=0
[4] Bidomain phiE reference debug: proc=4 point=(0.125 0.05 0.05) refCell=17 ownsReference=1
[1] Bidomain phiE reference debug: proc=1 point=(0.125 0.05 0.05) refCell=-1 ownsReference=0
[0] Bidomain phiE reference debug: proc=0 point=(0.125 0.05 0.05) refCell=-1 ownsReference=0
Bidomain phiE reference summary: ownerCount=1 ownerProc=4 point=(0.125 0.05 0.05)
PIMPLE: iteration 1
[3] Bidomain phiE solve debug: proc=3 entering solve, refCell=-1 refValue=0 outerIter=1
[2] Bidomain phiE solve debug: proc=2 entering solve, refCell=-1 refValue=0 outerIter=1
[5] Bidomain phiE solve debug: proc=5 entering solve, refCell=-1 refValue=0 outerIter=1
[1] Bidomain phiE solve debug: proc=1 entering solve, refCell=-1 refValue=0 outerIter=1
[4] Bidomain phiE solve debug: proc=4 entering solve, refCell=17 refValue=0 outerIter=1
[0] Bidomain phiE solve debug: proc=0 entering solve, refCell=-1 refValue=0 outerIter=1
DICPCG:  Solving for phiE, Initial residual = 2.97163e-08, Final residual = 7.73476e-16, No Iterations 86
[2] Bidomain phiE solve debug: proc=2 completed solve, outerIter=1
[5] Bidomain phiE solve debug: proc=5 completed solve, outerIter=1
[3] Bidomain phiE solve debug: proc=3 completed solve, outerIter=1
[1] Bidomain phiE solve debug: proc=1 completed solve, outerIter=1
[4] Bidomain phiE solve debug: proc=4 completed solve, outerIter=1
[0] Bidomain phiE solve debug: proc=0 completed solve, outerIter=1
DICPCG:  Solving for Vm, Initial residual = 0.000136383, Final residual = 4.96673e-16, No Iterations 5
PIMPLE: iteration 2
[2] Bidomain phiE solve debug: proc=2 entering solve, refCell=-1 refValue=0 outerIter=2
[3] Bidomain phiE solve debug: proc=3 entering solve, refCell=-1 refValue=0 outerIter=2
[4] Bidomain phiE solve debug: proc=4 entering solve, refCell=17 refValue=0 outerIter=2
[5] Bidomain phiE solve debug: proc=5 entering solve, refCell=-1 refValue=0 outerIter=2
[1] Bidomain phiE solve debug: proc=1 entering solve, refCell=-1 refValue=0 outerIter=2
[0] Bidomain phiE solve debug: proc=0 entering solve, refCell=-1 refValue=0 outerIter=2
DICPCG:  Solving for phiE, Initial residual = 0.000115787, Final residual = 9.37601e-16, No Iterations 101
[0] Bidomain phiE solve debug: proc=0 completed solve, outerIter=2
[5] Bidomain phiE solve debug: proc=5 completed solve, outerIter=2
[2] Bidomain phiE solve debug: proc=2 completed solve, outerIter=2
[3] Bidomain phiE solve debug: proc=3 completed solve, outerIter=2
[1] Bidomain phiE solve debug: proc=1 completed solve, outerIter=2
[4] Bidomain phiE solve debug: proc=4 completed solve, outerIter=2
DICPCG:  Solving for Vm, Initial residual = 3.49833e-08, Final residual = 1.39696e-17, No Iterations 4
ExecutionTime = 0.05 s  ClockTime = 0 s

Time = 0.0134529

DEBUG cell=0 t=0.0128924→0.0134529 step=0.000560538 V=-1.00246 u1=0.013666 u2=0.985657 u3=0 Iion=1.56635
DEBUG cell=0 t=0.0128924→0.0134529 step=0.00504484 V=-1.00246 u1=0.0139509 u2=0.985112 u3=0 Iion=1.56623
[3] Bidomain phiE reference debug: proc=3 point=(0.125 0.05 0.05) refCell=-1 ownsReference=0
[2] Bidomain phiE reference debug: proc=2 point=(0.125 0.05 0.05) refCell=-1 ownsReference=0
[5] Bidomain phiE reference debug: proc=5 point=(0.125 0.05 0.05) refCell=-1 ownsReference=0
[4] Bidomain phiE reference debug: proc=4 point=(0.125 0.05 0.05) refCell=17 ownsReference=1
[1] Bidomain phiE reference debug: proc=1 point=(0.125 0.05 0.05) refCell=-1 ownsReference=0
[0] Bidomain phiE reference debug: proc=0 point=(0.125 0.05 0.05) refCell=-1 ownsReference=0
Bidomain phiE reference summary: ownerCount=1 ownerProc=4 point=(0.125 0.05 0.05)
PIMPLE: iteration 1
[2] Bidomain phiE solve debug: proc=2 entering solve, refCell=-1 refValue=0 outerIter=1
[3] Bidomain phiE solve debug: proc=3 entering solve, refCell=-1 refValue=0 outerIter=1
[4] Bidomain phiE solve debug: proc=4 entering solve, refCell=17 refValue=0 outerIter=1
[0] Bidomain phiE solve debug: proc=0 entering solve, refCell=-1 refValue=0 outerIter=1
[1] Bidomain phiE solve debug: proc=1 entering solve, refCell=-1 refValue=0 outerIter=1
[5] Bidomain phiE solve debug: proc=5 entering solve, refCell=-1 refValue=0 outerIter=1
DICPCG:  Solving for phiE, Initial residual = 2.96996e-08, Final residual = 7.73032e-16, No Iterations 86
[0] Bidomain phiE solve debug: proc=0 completed solve, outerIter=1
[3] Bidomain phiE solve debug: proc=3 completed solve, outerIter=1
[2] Bidomain phiE solve debug: proc=2 completed solve, outerIter=1
[5] Bidomain phiE solve debug: proc=5 completed solve, outerIter=1
[1] Bidomain phiE solve debug: proc=1 completed solve, outerIter=1
[4] Bidomain phiE solve debug: proc=4 completed solve, outerIter=1
DICPCG:  Solving for Vm, Initial residual = 0.000136306, Final residual = 4.96394e-16, No Iterations 5
PIMPLE: iteration 2
[0] Bidomain phiE solve debug: proc=0 entering solve, refCell=-1 refValue=0 outerIter=2
[1] Bidomain phiE solve debug: proc=1 entering solve, refCell=-1 refValue=0 outerIter=2
[3] Bidomain phiE solve debug: proc=3 entering solve, refCell=-1 refValue=0 outerIter=2
[4] Bidomain phiE solve debug: proc=4 entering solve, refCell=17 refValue=0 outerIter=2
[5] Bidomain phiE solve debug: proc=5 entering solve, refCell=-1 refValue=0 outerIter=2
[2] Bidomain phiE solve debug: proc=2 entering solve, refCell=-1 refValue=0 outerIter=2
DICPCG:  Solving for phiE, Initial residual = 0.000115722, Final residual = 9.37056e-16, No Iterations 101
[0] Bidomain phiE solve debug: proc=0 completed solve, outerIter=2
[2] Bidomain phiE solve debug: proc=2 completed solve, outerIter=2
[3] Bidomain phiE solve debug: proc=3 completed solve, outerIter=2
[4] Bidomain phiE solve debug: proc=4 completed solve, outerIter=2
[1] Bidomain phiE solve debug: proc=1 completed solve, outerIter=2
[5] Bidomain phiE solve debug: proc=5 completed solve, outerIter=2
DICPCG:  Solving for Vm, Initial residual = 3.49637e-08, Final residual = 1.39617e-17, No Iterations 4
ExecutionTime = 0.06 s  ClockTime = 0 s

Time = 0.0140134

[...]
DEBUG cell=0 t=0.196749→0.197309 step=0.00504484 V=-1.08816 u1=0.111071 u2=0.833948 u3=0 Iion=1.53437
[3] Bidomain phiE reference debug: proc=3 point=(0.125 0.05 0.05) refCell=-1 ownsReference=0
[2] Bidomain phiE reference debug: proc=2 point=(0.125 0.05 0.05) refCell=-1 ownsReference=0
[5] Bidomain phiE reference debug: proc=5 point=(0.125 0.05 0.05) refCell=-1 ownsReference=0
[4] Bidomain phiE reference debug: proc=4 point=(0.125 0.05 0.05) refCell=17 ownsReference=1
[1] Bidomain phiE reference debug: proc=1 point=(0.125 0.05 0.05) refCell=-1 ownsReference=0
[0] Bidomain phiE reference debug: proc=0 point=(0.125 0.05 0.05) refCell=-1 ownsReference=0
Bidomain phiE reference summary: ownerCount=1 ownerProc=4 point=(0.125 0.05 0.05)
PIMPLE: iteration 1
[3] Bidomain phiE solve debug: proc=3 entering solve, refCell=-1 refValue=0 outerIter=1
[2] Bidomain phiE solve debug: proc=2 entering solve, refCell=-1 refValue=0 outerIter=1
[5] Bidomain phiE solve debug: proc=5 entering solve, refCell=-1 refValue=0 outerIter=1
[0] Bidomain phiE solve debug: proc=0 entering solve, refCell=-1 refValue=0 outerIter=1
[4] Bidomain phiE solve debug: proc=4 entering solve, refCell=17 refValue=0 outerIter=1
[1] Bidomain phiE solve debug: proc=1 entering solve, refCell=-1 refValue=0 outerIter=1
DICPCG:  Solving for phiE, Initial residual = 2.50731e-08, Final residual = 9.41145e-16, No Iterations 85
[0] Bidomain phiE solve debug: proc=0 completed solve, outerIter=1
[2] Bidomain phiE solve debug: proc=2 completed solve, outerIter=1
[5] Bidomain phiE solve debug: proc=5 completed solve, outerIter=1
[3] Bidomain phiE solve debug: proc=3 completed solve, outerIter=1
[1] Bidomain phiE solve debug: proc=1 completed solve, outerIter=1
[4] Bidomain phiE solve debug: proc=4 completed solve, outerIter=1
DICPCG:  Solving for Vm, Initial residual = 0.000115082, Final residual = 4.19058e-16, No Iterations 5
PIMPLE: iteration 2
[2] Bidomain phiE solve debug: proc=2 entering solve, refCell=-1 refValue=0 outerIter=2
[3] Bidomain phiE solve debug: proc=3 entering solve, refCell=-1 refValue=0 outerIter=2
[4] Bidomain phiE solve debug: proc=4 entering solve, refCell=17 refValue=0 outerIter=2
[0] Bidomain phiE solve debug: proc=0 entering solve, refCell=-1 refValue=0 outerIter=2
[1] Bidomain phiE solve debug: proc=1 entering solve, refCell=-1 refValue=0 outerIter=2
[5] Bidomain phiE solve debug: proc=5 entering solve, refCell=-1 refValue=0 outerIter=2
DICPCG:  Solving for phiE, Initial residual = 9.77016e-05, Final residual = 7.87161e-16, No Iterations 101
[0] Bidomain phiE solve debug: proc=0 completed solve, outerIter=2
[2] Bidomain phiE solve debug: proc=2 completed solve, outerIter=2
[5] Bidomain phiE solve debug: proc=5 completed solve, outerIter=2
[3] Bidomain phiE solve debug: proc=3 completed solve, outerIter=2
[1] Bidomain phiE solve debug: proc=1 completed solve, outerIter=2
[4] Bidomain phiE solve debug: proc=4 completed solve, outerIter=2
DICPCG:  Solving for Vm, Initial residual = 2.95201e-08, Final residual = 1.17866e-17, No Iterations 4
ExecutionTime = 0.64 s  ClockTime = 1 s

Time = 0.19787

DEBUG cell=0 t=0.197309→0.19787 step=0.000560538 V=-1.08842 u1=0.111071 u2=0.833948 u3=0 Iion=1.53437
DEBUG cell=0 t=0.197309→0.19787 step=0.00504484 V=-1.08842 u1=0.111377 u2=0.833558 u3=0 Iion=1.5343
[3] Bidomain phiE reference debug: proc=3 point=(0.125 0.05 0.05) refCell=-1 ownsReference=0
[2] Bidomain phiE reference debug: proc=2 point=(0.125 0.05 0.05) refCell=-1 ownsReference=0
[5] Bidomain phiE reference debug: proc=5 point=(0.125 0.05 0.05) refCell=-1 ownsReference=0
[4] Bidomain phiE reference debug: proc=4 point=(0.125 0.05 0.05) refCell=17 ownsReference=1
[1] Bidomain phiE reference debug: proc=1 point=(0.125 0.05 0.05) refCell=-1 ownsReference=0
[0] Bidomain phiE reference debug: proc=0 point=(0.125 0.05 0.05) refCell=-1 ownsReference=0
Bidomain phiE reference summary: ownerCount=1 ownerProc=4 point=(0.125 0.05 0.05)
PIMPLE: iteration 1
[3] Bidomain phiE solve debug: proc=3 entering solve, refCell=-1 refValue=0 outerIter=1
[2] Bidomain phiE solve debug: proc=2 entering solve, refCell=-1 refValue=0 outerIter=1
[5] Bidomain phiE solve debug: proc=5 entering solve, refCell=-1 refValue=0 outerIter=1
[1] Bidomain phiE solve debug: proc=1 entering solve, refCell=-1 refValue=0 outerIter=1
[4] Bidomain phiE solve debug: proc=4 entering solve, refCell=17 refValue=0 outerIter=1
[0] Bidomain phiE solve debug: proc=0 entering solve, refCell=-1 refValue=0 outerIter=1
DICPCG:  Solving for phiE, Initial residual = 2.50612e-08, Final residual = 9.40744e-16, No Iterations 85
[0] Bidomain phiE solve debug: proc=0 completed solve, outerIter=1
[3] Bidomain phiE solve debug: proc=3 completed solve, outerIter=1
[2] Bidomain phiE solve debug: proc=2 completed solve, outerIter=1
[5] Bidomain phiE solve debug: proc=5 completed solve, outerIter=1
[4] Bidomain phiE solve debug: proc=4 completed solve, outerIter=1
[1] Bidomain phiE solve debug: proc=1 completed solve, outerIter=1
DICPCG:  Solving for Vm, Initial residual = 0.000115027, Final residual = 4.18858e-16, No Iterations 5
PIMPLE: iteration 2
[2] Bidomain phiE solve debug: proc=2 entering solve, refCell=-1 refValue=0 outerIter=2
[3] Bidomain phiE solve debug: proc=3 entering solve, refCell=-1 refValue=0 outerIter=2
[0] Bidomain phiE solve debug: proc=0 entering solve, refCell=-1 refValue=0 outerIter=2
[4] Bidomain phiE solve debug: proc=4 entering solve, refCell=17 refValue=0 outerIter=2
[5] Bidomain phiE solve debug: proc=5 entering solve, refCell=-1 refValue=0 outerIter=2
[1] Bidomain phiE solve debug: proc=1 entering solve, refCell=-1 refValue=0 outerIter=2
DICPCG:  Solving for phiE, Initial residual = 9.76551e-05, Final residual = 7.86778e-16, No Iterations 101
[2] Bidomain phiE solve debug: proc=2 completed solve, outerIter=2
[5] Bidomain phiE solve debug: proc=5 completed solve, outerIter=2
[3] Bidomain phiE solve debug: proc=3 completed solve, outerIter=2
[0] Bidomain phiE solve debug: proc=0 completed solve, outerIter=2
[4] Bidomain phiE solve debug: proc=4 completed solve, outerIter=2
[1] Bidomain phiE solve debug: proc=1 completed solve, outerIter=2
DICPCG:  Solving for Vm, Initial residual = 2.9506e-08, Final residual = 1.1781e-17, No Iterations 4
ExecutionTime = 0.64 s  ClockTime = 1 s

Time = 0.19843

DEBUG cell=0 t=0.19787→0.19843 step=0.000560538 V=-1.08867 u1=0.111377 u2=0.833558 u3=0 Iion=1.5343
DEBUG cell=0 t=0.19787→0.19843 step=0.00504484 V=-1.08867 u1=0.111684 u2=0.833169 u3=0 Iion=1.53422
[3] Bidomain phiE reference debug: proc=3 point=(0.125 0.05 0.05) refCell=-1 ownsReference=0
[2] Bidomain phiE reference debug: proc=2 point=(0.125 0.05 0.05) refCell=-1 ownsReference=0
[5] Bidomain phiE reference debug: proc=5 point=(0.125 0.05 0.05) refCell=-1 ownsReference=0
[4] Bidomain phiE reference debug: proc=4 point=(0.125 0.05 0.05) refCell=17 ownsReference=1
[1] Bidomain phiE reference debug: proc=1 point=(0.125 0.05 0.05) refCell=-1 ownsReference=0
[0] Bidomain phiE reference debug: proc=0 point=(0.125 0.05 0.05) refCell=-1 ownsReference=0
Bidomain phiE reference summary: ownerCount=1 ownerProc=4 point=(0.125 0.05 0.05)
PIMPLE: iteration 1
[3] Bidomain phiE solve debug: proc=3 entering solve, refCell=-1 refValue=0 outerIter=1
[2] Bidomain phiE solve debug: proc=2 entering solve, refCell=-1 refValue=0 outerIter=1
[0] Bidomain phiE solve debug: proc=0 entering solve, refCell=-1 refValue=0 outerIter=1
[4] Bidomain phiE solve debug: proc=4 entering solve, refCell=17 refValue=0 outerIter=1
[5] Bidomain phiE solve debug: proc=5 entering solve, refCell=-1 refValue=0 outerIter=1
[1] Bidomain phiE solve debug: proc=1 entering solve, refCell=-1 refValue=0 outerIter=1
DICPCG:  Solving for phiE, Initial residual = 2.50493e-08, Final residual = 9.40341e-16, No Iterations 85
[0] Bidomain phiE solve debug: proc=0 completed solve, outerIter=1
[3] Bidomain phiE solve debug: proc=3 completed solve, outerIter=1
[2] Bidomain phiE solve debug: proc=2 completed solve, outerIter=1
[5] Bidomain phiE solve debug: proc=5 completed solve, outerIter=1
[4] Bidomain phiE solve debug: proc=4 completed solve, outerIter=1
[1] Bidomain phiE solve debug: proc=1 completed solve, outerIter=1
DICPCG:  Solving for Vm, Initial residual = 0.000114972, Final residual = 4.18659e-16, No Iterations 5
PIMPLE: iteration 2
[0] Bidomain phiE solve debug: proc=0 entering solve, refCell=-1 refValue=0 outerIter=2
[2] Bidomain phiE solve debug: proc=2 entering solve, refCell=-1 refValue=0 outerIter=2
[3] Bidomain phiE solve debug: proc=3 entering solve, refCell=-1 refValue=0 outerIter=2
[4] Bidomain phiE solve debug: proc=4 entering solve, refCell=17 refValue=0 outerIter=2
[1] Bidomain phiE solve debug: proc=1 entering solve, refCell=-1 refValue=0 outerIter=2
[5] Bidomain phiE solve debug: proc=5 entering solve, refCell=-1 refValue=0 outerIter=2
DICPCG:  Solving for phiE, Initial residual = 9.76086e-05, Final residual = 7.86396e-16, No Iterations 101
[0] Bidomain phiE solve debug: proc=0 completed solve, outerIter=2
[2] Bidomain phiE solve debug: proc=2 completed solve, outerIter=2
[1] Bidomain phiE solve debug: proc=1 completed solve, outerIter=2
[4] Bidomain phiE solve debug: proc=4 completed solve, outerIter=2
[3] Bidomain phiE solve debug: proc=3 completed solve, outerIter=2
[5] Bidomain phiE solve debug: proc=5 completed solve, outerIter=2
DICPCG:  Solving for Vm, Initial residual = 2.9492e-08, Final residual = 1.17754e-17, No Iterations 4
ExecutionTime = 0.64 s  ClockTime = 1 s

Time = 0.198991

DEBUG cell=0 t=0.19843→0.198991 step=0.000560538 V=-1.08892 u1=0.111684 u2=0.833169 u3=0 Iion=1.53422
DEBUG cell=0 t=0.19843→0.198991 step=0.00504484 V=-1.08892 u1=0.11199 u2=0.83278 u3=0 Iion=1.53415
[3] Bidomain phiE reference debug: proc=3 point=(0.125 0.05 0.05) refCell=-1 ownsReference=0
[2] Bidomain phiE reference debug: proc=2 point=(0.125 0.05 0.05) refCell=-1 ownsReference=0
[4] Bidomain phiE reference debug: proc=4 point=(0.125 0.05 0.05) refCell=17 ownsReference=1
[1] Bidomain phiE reference debug: proc=1 point=(0.125 0.05 0.05) refCell=-1 ownsReference=0
[5] Bidomain phiE reference debug: proc=5 point=(0.125 0.05 0.05) refCell=-1 ownsReference=0
[0] Bidomain phiE reference debug: proc=0 point=(0.125 0.05 0.05) refCell=-1 ownsReference=0
Bidomain phiE reference summary: ownerCount=1 ownerProc=4 point=(0.125 0.05 0.05)
PIMPLE: iteration 1
[0] Bidomain phiE solve debug: proc=0 entering solve, refCell=-1 refValue=0 outerIter=1
[2] Bidomain phiE solve debug: proc=2 entering solve, refCell=-1 refValue=0 outerIter=1
[3] Bidomain phiE solve debug: proc=3 entering solve, refCell=-1 refValue=0 outerIter=1
[1] Bidomain phiE solve debug: proc=1 entering solve, refCell=-1 refValue=0 outerIter=1
[4] Bidomain phiE solve debug: proc=4 entering solve, refCell=17 refValue=0 outerIter=1
[5] Bidomain phiE solve debug: proc=5 entering solve, refCell=-1 refValue=0 outerIter=1
DICPCG:  Solving for phiE, Initial residual = 2.50374e-08, Final residual = 9.39937e-16, No Iterations 85
[0] Bidomain phiE solve debug: proc=0 completed solve, outerIter=1
[4] Bidomain phiE solve debug: proc=4 completed solve, outerIter=1
[3] Bidomain phiE solve debug: proc=3 completed solve, outerIter=1
[1] Bidomain phiE solve debug: proc=1 completed solve, outerIter=1
[5] Bidomain phiE solve debug: proc=5 completed solve, outerIter=1
[2] Bidomain phiE solve debug: proc=2 completed solve, outerIter=1
DICPCG:  Solving for Vm, Initial residual = 0.000114918, Final residual = 4.1846e-16, No Iterations 5
PIMPLE: iteration 2
[4] Bidomain phiE solve debug: proc=4 entering solve, refCell=17 refValue=0 outerIter=2
[0] Bidomain phiE solve debug: proc=0 entering solve, refCell=-1 refValue=0 outerIter=2
[2] Bidomain phiE solve debug: proc=2 entering solve, refCell=-1 refValue=0 outerIter=2
[3] Bidomain phiE solve debug: proc=3 entering solve, refCell=-1 refValue=0 outerIter=2
[5] Bidomain phiE solve debug: proc=5 entering solve, refCell=-1 refValue=0 outerIter=2
[1] Bidomain phiE solve debug: proc=1 entering solve, refCell=-1 refValue=0 outerIter=2
DICPCG:  Solving for phiE, Initial residual = 9.75622e-05, Final residual = 7.86014e-16, No Iterations 101
[0] Bidomain phiE solve debug: proc=0 completed solve, outerIter=2
[3] Bidomain phiE solve debug: proc=3 completed solve, outerIter=2
[5] Bidomain phiE solve debug: proc=5 completed solve, outerIter=2
[2] Bidomain phiE solve debug: proc=2 completed solve, outerIter=2
[4] Bidomain phiE solve debug: proc=4 completed solve, outerIter=2
[1] Bidomain phiE solve debug: proc=1 completed solve, outerIter=2
DICPCG:  Solving for Vm, Initial residual = 2.9478e-08, Final residual = 1.17698e-17, No Iterations 4
ExecutionTime = 0.65 s  ClockTime = 1 s

Time = 0.199552

DEBUG cell=0 t=0.198991→0.199552 step=0.000560538 V=-1.08917 u1=0.11199 u2=0.83278 u3=0 Iion=1.53415
DEBUG cell=0 t=0.198991→0.199552 step=0.00504484 V=-1.08917 u1=0.112297 u2=0.832391 u3=0 Iion=1.53407
[3] Bidomain phiE reference debug: proc=3 point=(0.125 0.05 0.05) refCell=-1 ownsReference=0
[2] Bidomain phiE reference debug: proc=2 point=(0.125 0.05 0.05) refCell=-1 ownsReference=0
[5] Bidomain phiE reference debug: proc=5 point=(0.125 0.05 0.05) refCell=-1 ownsReference=0
[4] Bidomain phiE reference debug: proc=4 point=(0.125 0.05 0.05) refCell=17 ownsReference=1
[1] Bidomain phiE reference debug: proc=1 point=(0.125 0.05 0.05) refCell=-1 ownsReference=0
[0] Bidomain phiE reference debug: proc=0 point=(0.125 0.05 0.05) refCell=-1 ownsReference=0
Bidomain phiE reference summary: ownerCount=1 ownerProc=4 point=(0.125 0.05 0.05)
PIMPLE: iteration 1
[0] Bidomain phiE solve debug: proc=0 entering solve, refCell=-1 refValue=0 outerIter=1
[1] Bidomain phiE solve debug: proc=1 entering solve, refCell=-1 refValue=0 outerIter=1
[2] Bidomain phiE solve debug: proc=2 entering solve, refCell=-1 refValue=0 outerIter=1
[5] Bidomain phiE solve debug: proc=5 entering solve, refCell=-1 refValue=0 outerIter=1
[3] Bidomain phiE solve debug: proc=3 entering solve, refCell=-1 refValue=0 outerIter=1
[4] Bidomain phiE solve debug: proc=4 entering solve, refCell=17 refValue=0 outerIter=1
DICPCG:  Solving for phiE, Initial residual = 2.50255e-08, Final residual = 9.3954e-16, No Iterations 85
[0] Bidomain phiE solve debug: proc=0 completed solve, outerIter=1
[3] Bidomain phiE solve debug: proc=3 completed solve, outerIter=1
[2] Bidomain phiE solve debug: proc=2 completed solve, outerIter=1
[1] Bidomain phiE solve debug: proc=1 completed solve, outerIter=1
[5] Bidomain phiE solve debug: proc=5 completed solve, outerIter=1
[4] Bidomain phiE solve debug: proc=4 completed solve, outerIter=1
DICPCG:  Solving for Vm, Initial residual = 0.000114863, Final residual = 4.18261e-16, No Iterations 5
PIMPLE: iteration 2
[0] Bidomain phiE solve debug: proc=0 entering solve, refCell=-1 refValue=0 outerIter=2
[4] Bidomain phiE solve debug: proc=4 entering solve, refCell=17 refValue=0 outerIter=2
[1] Bidomain phiE solve debug: proc=1 entering solve, refCell=-1 refValue=0 outerIter=2
[5] Bidomain phiE solve debug: proc=5 entering solve, refCell=-1 refValue=0 outerIter=2
[2] Bidomain phiE solve debug: proc=2 entering solve, refCell=-1 refValue=0 outerIter=2
[3] Bidomain phiE solve debug: proc=3 entering solve, refCell=-1 refValue=0 outerIter=2
DICPCG:  Solving for phiE, Initial residual = 9.75159e-05, Final residual = 7.85632e-16, No Iterations 101
[0] Bidomain phiE solve debug: proc=0 completed solve, outerIter=2
[3] Bidomain phiE solve debug: proc=3 completed solve, outerIter=2
[5] Bidomain phiE solve debug: proc=5 completed solve, outerIter=2
[2] Bidomain phiE solve debug: proc=2 completed solve, outerIter=2
[1] Bidomain phiE solve debug: proc=1 completed solve, outerIter=2
[4] Bidomain phiE solve debug: proc=4 completed solve, outerIter=2
DICPCG:  Solving for Vm, Initial residual = 2.9464e-08, Final residual = 1.17642e-17, No Iterations 4
ExecutionTime = 0.65 s  ClockTime = 1 s

Time = 0.200112

DEBUG cell=0 t=0.199552→0.200112 step=0.000560538 V=-1.08942 u1=0.112297 u2=0.832391 u3=0 Iion=1.53407
DEBUG cell=0 t=0.199552→0.200112 step=0.00504484 V=-1.08942 u1=0.112603 u2=0.832003 u3=0 Iion=1.534
[3] Bidomain phiE reference debug: proc=3 point=(0.125 0.05 0.05) refCell=-1 ownsReference=0
[2] Bidomain phiE reference debug: proc=2 point=(0.125 0.05 0.05) refCell=-1 ownsReference=0
[5] Bidomain phiE reference debug: proc=5 point=(0.125 0.05 0.05) refCell=-1 ownsReference=0
[4] Bidomain phiE reference debug: proc=4 point=(0.125 0.05 0.05) refCell=17 ownsReference=1
[1] Bidomain phiE reference debug: proc=1 point=(0.125 0.05 0.05) refCell=-1 ownsReference=0
[0] Bidomain phiE reference debug: proc=0 point=(0.125 0.05 0.05) refCell=-1 ownsReference=0
Bidomain phiE reference summary: ownerCount=1 ownerProc=4 point=(0.125 0.05 0.05)
PIMPLE: iteration 1
[0] Bidomain phiE solve debug: proc=0 entering solve, refCell=-1 refValue=0 outerIter=1
[2] Bidomain phiE solve debug: proc=2 entering solve, refCell=-1 refValue=0 outerIter=1
[1] Bidomain phiE solve debug: proc=1 entering solve, refCell=-1 refValue=0 outerIter=1
[3] Bidomain phiE solve debug: proc=3 entering solve, refCell=-1 refValue=0 outerIter=1
[5] Bidomain phiE solve debug: proc=5 entering solve, refCell=-1 refValue=0 outerIter=1
[4] Bidomain phiE solve debug: proc=4 entering solve, refCell=17 refValue=0 outerIter=1
DICPCG:  Solving for phiE, Initial residual = 2.50136e-08, Final residual = 9.39133e-16, No Iterations 85
[0] Bidomain phiE solve debug: proc=0 completed solve, outerIter=1
[3] Bidomain phiE solve debug: proc=3 completed solve, outerIter=1
[5] Bidomain phiE solve debug: proc=5 completed solve, outerIter=1
[2] Bidomain phiE solve debug: proc=2 completed solve, outerIter=1
[1] Bidomain phiE solve debug: proc=1 completed solve, outerIter=1
[4] Bidomain phiE solve debug: proc=4 completed solve, outerIter=1
DICPCG:  Solving for Vm, Initial residual = 0.000114809, Final residual = 4.18062e-16, No Iterations 5
PIMPLE: iteration 2
[0] Bidomain phiE solve debug: proc=0 entering solve, refCell=-1 refValue=0 outerIter=2
[2] Bidomain phiE solve debug: proc=2 entering solve, refCell=-1 refValue=0 outerIter=2
[1] Bidomain phiE solve debug: proc=1 entering solve, refCell=-1 refValue=0 outerIter=2
[5] Bidomain phiE solve debug: proc=5 entering solve, refCell=-1 refValue=0 outerIter=2
[3] Bidomain phiE solve debug: proc=3 entering solve, refCell=-1 refValue=0 outerIter=2
[4] Bidomain phiE solve debug: proc=4 entering solve, refCell=17 refValue=0 outerIter=2
DICPCG:  Solving for phiE, Initial residual = 9.74696e-05, Final residual = 7.85251e-16, No Iterations 101
[0] Bidomain phiE solve debug: proc=0 completed solve, outerIter=2
[5] Bidomain phiE solve debug: proc=5 completed solve, outerIter=2
[3] Bidomain phiE solve debug: proc=3 completed solve, outerIter=2
[2] Bidomain phiE solve debug: proc=2 completed solve, outerIter=2
[1] Bidomain phiE solve debug: proc=1 completed solve, outerIter=2
[4] Bidomain phiE solve debug: proc=4 completed solve, outerIter=2
DICPCG:  Solving for Vm, Initial residual = 2.945e-08, Final residual = 1.17586e-17, No Iterations 4

Bidomain manufactured-solution error summary (t = 0.200112):
-------------------------------------------------
Field     L1-error       L2-error       Linf-error
Vm        0.000623065   0.000768193   0.0016126
phiE      0.0213415   0.0214981   0.0264705
phiI      0.0213607   0.0214384   0.0250117
u1        9.92772e-05   0.000124691   0.000314832
u2        3.77923e-05   4.77949e-05   0.000112268
-------------------------------------------------
Bidomain manufactured PDE residuals evaluated on exact fields:
-------------------------------------------------
Equation  L1-residual    L2-residual    Linf-residual
Vm        0.00135766   0.0016728   0.00333271
phiE      1.96237e-10   2.41786e-10   4.81817e-10
-------------------------------------------------
ExecutionTime = 0.65 s  ClockTime = 1 s


End

Finalising parallel run
