/*---------------------------------------------------------------------------*\
| =========                 |                                                 |
| \\      /  F ield         | OpenFOAM: The Open Source CFD Toolbox           |
|  \\    /   O peration     | Version:  2412                                  |
|   \\  /    A nd           | Website:  www.openfoam.com                      |
|    \\/     M anipulation  |                                                 |
\*---------------------------------------------------------------------------*/
Build  : _8dbc61e11c-20241220 OPENFOAM=2412 version=v2412
Arch   : "LSB;label=32;scalar=64"
Exec   : cardiacFoam -parallel
Date   : Apr 09 2026
Time   : 22:16:20
Host   : macbook
PID    : 2843
I/O    : uncollated
Case   : /Users/simaocastro/cardiacFoamEPsacred/cardiacFoamsacred/tutorials/bidomainFDA
nProcs : 6
Hosts  :
(
    (macbook 6)
)
Pstream initialized with:
    floatTransfer      : false
    maxCommsSize       : 0
    nProcsSimpleSum    : 0
    nonBlockingExchange: 0 (tuning: 0)
    exchange algorithm : 0
    commsType          : nonBlocking
    polling iterations : 0
trapFpe: Floating point exception trapping enabled (FOAM_SIGFPE).
fileModificationChecking : Monitoring run-time modified files using timeStampMaster (fileModificationSkew 5, maxFileModificationPolls 20)
allowSystemOperations : Allowing user-supplied system call operations

// * * * * * * * * * * * * * * * * * * * * * * * * * * * * * * * * * * * * * //
Create time

Selecting physicsModel electroModel

Selecting myocardiumSolver bidomainSolver
Selecting electroVerificationModel manufacturedFDABidomainVerifier

Selecting myocardiumSolver bidomainSolver

conductivityIntracellular not found on disk, using value from "/Users/simaocastro/cardiacFoamEPsacred/cardiacFoamsacred/tutorials/bidomainFDA/processor0/../constant/electroProperties/bidomainSolverCoeffs"


conductivityExtracellular not found on disk, using value from "/Users/simaocastro/cardiacFoamEPsacred/cardiacFoamsacred/tutorials/bidomainFDA/processor0/../constant/electroProperties/bidomainSolverCoeffs"

Using verification model manufacturedFDABidomainVerifier.
Running preProcess with fields 3(u1 u2 u3).
Selecting electrophysicsAdvanceScheme staggeredElectrophysicsAdvanceScheme
Time = 0.00224215


PIMPLE: no residual control data found. Calculations will employ 2 corrector loops

DEBUG cell=0 t=0→0.00224215 step=0.00224215 V=-0.984644 u1=0.022247 u2=0.996572 u3=0 Iion=0
Selecting ODE solver RKF45
DEBUG cell=0 t=0→0.00224215 step=0.0201793 V=-0.984644 u1=0.0234001 u2=0.994344 u3=0 Iion=1.54855
[1] Bidomain phiE reference debug: proc=1 point=(0.125 0.05 0.05) refCell=-1 ownsReference=0
[0] Bidomain phiE reference debug: proc=0 point=(0.125 0.05 0.05) refCell=-1 ownsReference=0
[4] Bidomain phiE reference debug: proc=4 point=(0.125 0.05 0.05) refCell=2 ownsReference=1
Bidomain phiE reference summary: ownerCount=1 ownerProc=4 point=(0.125 0.05 0.05)
[3] Bidomain phiE reference debug: proc=3 point=(0.125 0.05 0.05) refCell=-1 ownsReference=0
[2] Bidomain phiE reference debug: proc=2 point=(0.125 0.05 0.05) refCell=-1 ownsReference=0
[5] Bidomain phiE reference debug: proc=5 point=(0.125 0.05 0.05) refCell=-1 ownsReference=0
PIMPLE: iteration 1
[0] Bidomain phiE solve debug: proc=0 entering solve, refCell=-1 refValue=0 outerIter=1
[4] Bidomain phiE solve debug: proc=4 entering solve, refCell=2 refValue=0 outerIter=1
[2] Bidomain phiE solve debug: proc=2 entering solve, refCell=-1 refValue=0 outerIter=1
[3] Bidomain phiE solve debug: proc=3 entering solve, refCell=-1 refValue=0 outerIter=1
[5] Bidomain phiE solve debug: proc=5 entering solve, refCell=-1 refValue=0 outerIter=1
[1] Bidomain phiE solve debug: proc=1 entering solve, refCell=-1 refValue=0 outerIter=1
DICPCG:  Solving for phiE, Initial residual = 0.0115865, Final residual = 6.64599e-16, No Iterations 62
[0] Bidomain phiE solve debug: proc=0 completed solve, outerIter=1
[2] Bidomain phiE solve debug: proc=2 completed solve, outerIter=1
[3] Bidomain phiE solve debug: proc=3 completed solve, outerIter=1
[4] Bidomain phiE solve debug: proc=4 completed solve, outerIter=1
[5] Bidomain phiE solve debug: proc=5 completed solve, outerIter=1
[1] Bidomain phiE solve debug: proc=1 completed solve, outerIter=1
DICPCG:  Solving for Vm, Initial residual = 0.0005279, Final residual = 7.25253e-16, No Iterations 6
PIMPLE: iteration 2
[0] Bidomain phiE solve debug: proc=0 entering solve, refCell=-1 refValue=0 outerIter=2
[1] Bidomain phiE solve debug: proc=1 entering solve, refCell=-1 refValue=0 outerIter=2
[3] Bidomain phiE solve debug: proc=3 entering solve, refCell=-1 refValue=0 outerIter=2
[5] Bidomain phiE solve debug: proc=5 entering solve, refCell=-1 refValue=0 outerIter=2
[2] Bidomain phiE solve debug: proc=2 entering solve, refCell=-1 refValue=0 outerIter=2
[4] Bidomain phiE solve debug: proc=4 entering solve, refCell=2 refValue=0 outerIter=2
DICPCG:  Solving for phiE, Initial residual = 0.000466487, Final residual = 5.63744e-16, No Iterations 59
[2] Bidomain phiE solve debug: proc=2 completed solve, outerIter=2
[3] Bidomain phiE solve debug: proc=3 completed solve, outerIter=2
[4] Bidomain phiE solve debug: proc=4 completed solve, outerIter=2
[0] Bidomain phiE solve debug: proc=0 completed solve, outerIter=2
[5] Bidomain phiE solve debug: proc=5 completed solve, outerIter=2
[1] Bidomain phiE solve debug: proc=1 completed solve, outerIter=2
DICPCG:  Solving for Vm, Initial residual = 7.81049e-07, Final residual = 7.70706e-17, No Iterations 5
ExecutionTime = 0.01 s  ClockTime = 0 s

Time = 0.0044843

DEBUG cell=0 t=0.00224215→0.0044843 step=0.00224215 V=-0.985684 u1=0.0234001 u2=0.994344 u3=0 Iion=1.54855
DEBUG cell=0 t=0.00224215→0.0044843 step=0.0201793 V=-0.985684 u1=0.0245543 u2=0.992126 u3=0 Iion=1.54793
[2] Bidomain phiE reference debug: proc=2 point=(0.125 0.05 0.05) refCell=-1 ownsReference=0
[3] Bidomain phiE reference debug: proc=3 point=(0.125 0.05 0.05) refCell=-1 ownsReference=0
[4] Bidomain phiE reference debug: proc=4 point=(0.125 0.05 0.05) refCell=2 ownsReference=1
[1] Bidomain phiE reference debug: proc=1 point=(0.125 0.05 0.05) refCell=-1 ownsReference=0
[5] Bidomain phiE reference debug: proc=5 point=(0.125 0.05 0.05) refCell=-1 ownsReference=0
[0] Bidomain phiE reference debug: proc=0 point=(0.125 0.05 0.05) refCell=-1 ownsReference=0
Bidomain phiE reference summary: ownerCount=1 ownerProc=4 point=(0.125 0.05 0.05)
PIMPLE: iteration 1
[0] Bidomain phiE solve debug: proc=0 entering solve, refCell=-1 refValue=0 outerIter=1
[2] Bidomain phiE solve debug: proc=2 entering solve, refCell=-1 refValue=0 outerIter=1
[1] Bidomain phiE solve debug: proc=1 entering solve, refCell=-1 refValue=0 outerIter=1
[4] Bidomain phiE solve debug: proc=4 entering solve, refCell=2 refValue=0 outerIter=1
[3] Bidomain phiE solve debug: proc=3 entering solve, refCell=-1 refValue=0 outerIter=1
[5] Bidomain phiE solve debug: proc=5 entering solve, refCell=-1 refValue=0 outerIter=1
DICPCG:  Solving for phiE, Initial residual = 6.90138e-07, Final residual = 6.90874e-16, No Iterations 51
[3] Bidomain phiE solve debug: proc=3 completed solve, outerIter=1
[2] Bidomain phiE solve debug: proc=2 completed solve, outerIter=1
[0] Bidomain phiE solve debug: proc=0 completed solve, outerIter=1
[4] Bidomain phiE solve debug: proc=4 completed solve, outerIter=1
[5] Bidomain phiE solve debug: proc=5 completed solve, outerIter=1
[1] Bidomain phiE solve debug: proc=1 completed solve, outerIter=1
DICPCG:  Solving for Vm, Initial residual = 0.000527144, Final residual = 6.20587e-17, No Iterations 6
PIMPLE: iteration 2
[0] Bidomain phiE solve debug: proc=0 entering solve, refCell=-1 refValue=0 outerIter=2
[1] Bidomain phiE solve debug: proc=1 entering solve, refCell=-1 refValue=0 outerIter=2
[3] Bidomain phiE solve debug: proc=3 entering solve, refCell=-1 refValue=0 outerIter=2
[5] Bidomain phiE solve debug: proc=5 entering solve, refCell=-1 refValue=0 outerIter=2
[2] Bidomain phiE solve debug: proc=2 entering solve, refCell=-1 refValue=0 outerIter=2
[4] Bidomain phiE solve debug: proc=4 entering solve, refCell=2 refValue=0 outerIter=2
DICPCG:  Solving for phiE, Initial residual = 0.000465818, Final residual = 5.62912e-16, No Iterations 59
[0] Bidomain phiE solve debug: proc=0 completed solve, outerIter=2
[2] Bidomain phiE solve debug: proc=2 completed solve, outerIter=2
[1] Bidomain phiE solve debug: proc=1 completed solve, outerIter=2
[4] Bidomain phiE solve debug: proc=4 completed solve, outerIter=2
[3] Bidomain phiE solve debug: proc=3 completed solve, outerIter=2
[5] Bidomain phiE solve debug: proc=5 completed solve, outerIter=2
DICPCG:  Solving for Vm, Initial residual = 5.20333e-07, Final residual = 6.07901e-16, No Iterations 4
ExecutionTime = 0.01 s  ClockTime = 0 s

Time = 0.00672645

DEBUG cell=0 t=0.0044843→0.00672645 step=0.00224215 V=-0.986724 u1=0.0245543 u2=0.992126 u3=0 Iion=1.54793
DEBUG cell=0 t=0.0044843→0.00672645 step=0.0201793 V=-0.986724 u1=0.0257096 u2=0.989918 u3=0 Iion=1.54733
[4] Bidomain phiE reference debug: proc=4 point=(0.125 0.05 0.05) refCell=2 ownsReference=1
[2] Bidomain phiE reference debug: proc=2 point=(0.125 0.05 0.05) refCell=-1 ownsReference=0
[3] Bidomain phiE reference debug: proc=3 point=(0.125 0.05 0.05) refCell=-1 ownsReference=0
[0] Bidomain phiE reference debug: proc=0 point=(0.125 0.05 0.05) refCell=-1 ownsReference=0
Bidomain phiE reference summary: ownerCount=1 ownerProc=4 point=(0.125 0.05 0.05)
PIMPLE: iteration 1
[1] Bidomain phiE reference debug: proc=1 point=(0.125 0.05 0.05) refCell=-1 ownsReference=0
[5] Bidomain phiE reference debug: proc=5 point=(0.125 0.05 0.05) refCell=-1 ownsReference=0
[1] Bidomain phiE solve debug: proc=1 entering solve, refCell=-1 refValue=0 outerIter=1
[5] Bidomain phiE solve debug: proc=5 entering solve, refCell=-1 refValue=0 outerIter=1
[0] Bidomain phiE solve debug: proc=0 entering solve, refCell=-1 refValue=0 outerIter=1
[4] Bidomain phiE solve debug: proc=4 entering solve, refCell=2 refValue=0 outerIter=1
[2] Bidomain phiE solve debug: proc=2 entering solve, refCell=-1 refValue=0 outerIter=1
[3] Bidomain phiE solve debug: proc=3 entering solve, refCell=-1 refValue=0 outerIter=1
DICPCG:  Solving for phiE, Initial residual = 4.59768e-07, Final residual = 9.06908e-16, No Iterations 50
[0] Bidomain phiE solve debug: proc=0 completed solve, outerIter=1
[1] Bidomain phiE solve debug: proc=1 completed solve, outerIter=1
[2] Bidomain phiE solve debug: proc=2 completed solve, outerIter=1
[4] Bidomain phiE solve debug: proc=4 completed solve, outerIter=1
[5] Bidomain phiE solve debug: proc=5 completed solve, outerIter=1
[3] Bidomain phiE solve debug: proc=3 completed solve, outerIter=1
DICPCG:  Solving for Vm, Initial residual = 0.00052598, Final residual = 6.19218e-17, No Iterations 6
PIMPLE: iteration 2
[1] Bidomain phiE solve debug: proc=1 entering solve, refCell=-1 refValue=0 outerIter=2
[0] Bidomain phiE solve debug: proc=0 entering solve, refCell=-1 refValue=0 outerIter=2
[4] Bidomain phiE solve debug: proc=4 entering solve, refCell=2 refValue=0 outerIter=2
[2] Bidomain phiE solve debug: proc=2 entering solve, refCell=-1 refValue=0 outerIter=2
[3] Bidomain phiE solve debug: proc=3 entering solve, refCell=-1 refValue=0 outerIter=2
[5] Bidomain phiE solve debug: proc=5 entering solve, refCell=-1 refValue=0 outerIter=2
DICPCG:  Solving for phiE, Initial residual = 0.00046479, Final residual = 5.61634e-16, No Iterations 59
[2] Bidomain phiE solve debug: proc=2 completed solve, outerIter=2
[3] Bidomain phiE solve debug: proc=3 completed solve, outerIter=2
[1] Bidomain phiE solve debug: proc=1 completed solve, outerIter=2
[4] Bidomain phiE solve debug: proc=4 completed solve, outerIter=2
[5] Bidomain phiE solve debug: proc=5 completed solve, outerIter=2
[0] Bidomain phiE solve debug: proc=0 completed solve, outerIter=2
DICPCG:  Solving for Vm, Initial residual = 5.19184e-07, Final residual = 6.06579e-16, No Iterations 4
ExecutionTime = 0.01 s  ClockTime = 0 s

Time = 0.0089686

DEBUG cell=0 t=0.00672645→0.0089686 step=0.00224215 V=-0.987762 u1=0.0257096 u2=0.989918 u3=0 Iion=1.54733
DEBUG cell=0 t=0.00672645→0.0089686 step=0.0201793 V=-0.987762 u1=0.026866 u2=0.98772 u3=0 Iion=1.54672
[2] Bidomain phiE reference debug: proc=2 point=(0.125 0.05 0.05) refCell=-1 ownsReference=0
[3] Bidomain phiE reference debug: proc=3 point=(0.125 0.05 0.05) refCell=-1 ownsReference=0
[4] Bidomain phiE reference debug: proc=4 point=(0.125 0.05 0.05) refCell=2 ownsReference=1
[1] Bidomain phiE reference debug: proc=1 point=(0.125 0.05 0.05) refCell=-1 ownsReference=0
[5] Bidomain phiE reference debug: proc=5 point=(0.125 0.05 0.05) refCell=-1 ownsReference=0
[0] Bidomain phiE reference debug: proc=0 point=(0.125 0.05 0.05) refCell=-1 ownsReference=0
Bidomain phiE reference summary: ownerCount=1 ownerProc=4 point=(0.125 0.05 0.05)
PIMPLE: iteration 1
[1] Bidomain phiE solve debug: proc=1 entering solve, refCell=-1 refValue=0 outerIter=1
[4] Bidomain phiE solve debug: proc=4 entering solve, refCell=2 refValue=0 outerIter=1
[2] Bidomain phiE solve debug: proc=2 entering solve, refCell=-1 refValue=0 outerIter=1
[0] Bidomain phiE solve debug: proc=0 entering solve, refCell=-1 refValue=0 outerIter=1
[5] Bidomain phiE solve debug: proc=5 entering solve, refCell=-1 refValue=0 outerIter=1
[3] Bidomain phiE solve debug: proc=3 entering solve, refCell=-1 refValue=0 outerIter=1
DICPCG:  Solving for phiE, Initial residual = 4.58753e-07, Final residual = 9.02222e-16, No Iterations 50
[2] Bidomain phiE solve debug: proc=2 completed solve, outerIter=1
[3] Bidomain phiE solve debug: proc=3 completed solve, outerIter=1
[1] Bidomain phiE solve debug: proc=1 completed solve, outerIter=1
[4] Bidomain phiE solve debug: proc=4 completed solve, outerIter=1
[0] Bidomain phiE solve debug: proc=0 completed solve, outerIter=1
[5] Bidomain phiE solve debug: proc=5 completed solve, outerIter=1
DICPCG:  Solving for Vm, Initial residual = 0.00052477, Final residual = 6.17795e-17, No Iterations 6
PIMPLE: iteration 2
[1] Bidomain phiE solve debug: proc=1 entering solve, refCell=-1 refValue=0 outerIter=2
[3] Bidomain phiE solve debug: proc=3 entering solve, refCell=-1 refValue=0 outerIter=2
[4] Bidomain phiE solve debug: proc=4 entering solve, refCell=2 refValue=0 outerIter=2
[2] Bidomain phiE solve debug: proc=2 entering solve, refCell=-1 refValue=0 outerIter=2
[5] Bidomain phiE solve debug: proc=5 entering solve, refCell=-1 refValue=0 outerIter=2
[0] Bidomain phiE solve debug: proc=0 entering solve, refCell=-1 refValue=0 outerIter=2
DICPCG:  Solving for phiE, Initial residual = 0.00046372, Final residual = 5.60309e-16, No Iterations 59
[2] Bidomain phiE solve debug: proc=2 completed solve, outerIter=2
[3] Bidomain phiE solve debug: proc=3 completed solve, outerIter=2
[1] Bidomain phiE solve debug: proc=1 completed solve, outerIter=2
[4] Bidomain phiE solve debug: proc=4 completed solve, outerIter=2
[0] Bidomain phiE solve debug: proc=0 completed solve, outerIter=2
[5] Bidomain phiE solve debug: proc=5 completed solve, outerIter=2
DICPCG:  Solving for Vm, Initial residual = 5.17991e-07, Final residual = 6.05207e-16, No Iterations 4
ExecutionTime = 0.01 s  ClockTime = 0 s

Time = 0.0112108

DEBUG cell=0 t=0.0089686→0.0112108 step=0.00224215 V=-0.988799 u1=0.026866 u2=0.98772 u3=0 Iion=1.54672
DEBUG cell=0 t=0.0089686→0.0112108 step=0.0201793 V=-0.988799 u1=0.0280234 u2=0.985531 u3=0 Iion=1.54612
[2] Bidomain phiE reference debug: proc=2 point=(0.125 0.05 0.05) refCell=-1 ownsReference=0
[3] Bidomain phiE reference debug: proc=3 point=(0.125 0.05 0.05) refCell=-1 ownsReference=0
[4] Bidomain phiE reference debug: proc=4 point=(0.125 0.05 0.05) refCell=2 ownsReference=1
[1] Bidomain phiE reference debug: proc=1 point=(0.125 0.05 0.05) refCell=-1 ownsReference=0
[5] Bidomain phiE reference debug: proc=5 point=(0.125 0.05 0.05) refCell=-1 ownsReference=0
[0] Bidomain phiE reference debug: proc=0 point=(0.125 0.05 0.05) refCell=-1 ownsReference=0
Bidomain phiE reference summary: ownerCount=1 ownerProc=4 point=(0.125 0.05 0.05)
PIMPLE: iteration 1
[1] Bidomain phiE solve debug: proc=1 entering solve, refCell=-1 refValue=0 outerIter=1
[0] Bidomain phiE solve debug: proc=0 entering solve, refCell=-1 refValue=0 outerIter=1
[2] Bidomain phiE solve debug: proc=2 entering solve, refCell=-1 refValue=0 outerIter=1
[4] Bidomain phiE solve debug: proc=4 entering solve, refCell=2 refValue=0 outerIter=1
[3] Bidomain phiE solve debug: proc=3 entering solve, refCell=-1 refValue=0 outerIter=1
[5] Bidomain phiE solve debug: proc=5 entering solve, refCell=-1 refValue=0 outerIter=1
DICPCG:  Solving for phiE, Initial residual = 4.57698e-07, Final residual = 8.97283e-16, No Iterations 50
[2] Bidomain phiE solve debug: proc=2 completed solve, outerIter=1
[3] Bidomain phiE solve debug: proc=3 completed solve, outerIter=1
[4] Bidomain phiE solve debug: proc=4 completed solve, outerIter=1
[1] Bidomain phiE solve debug: proc=1 completed solve, outerIter=1
[5] Bidomain phiE solve debug: proc=5 completed solve, outerIter=1
[0] Bidomain phiE solve debug: proc=0 completed solve, outerIter=1
DICPCG:  Solving for Vm, Initial residual = 0.000523548, Final residual = 6.16358e-17, No Iterations 6
PIMPLE: iteration 2
[0] Bidomain phiE solve debug: proc=0 entering solve, refCell=-1 refValue=0 outerIter=2
[2] Bidomain phiE solve debug: proc=2 entering solve, refCell=-1 refValue=0 outerIter=2
[4] Bidomain phiE solve debug: proc=4 entering solve, refCell=2 refValue=0 outerIter=2
[1] Bidomain phiE solve debug: proc=1 entering solve, refCell=-1 refValue=0 outerIter=2
[5] Bidomain phiE solve debug: proc=5 entering solve, refCell=-1 refValue=0 outerIter=2
[3] Bidomain phiE solve debug: proc=3 entering solve, refCell=-1 refValue=0 outerIter=2
DICPCG:  Solving for phiE, Initial residual = 0.000462641, Final residual = 5.58968e-16, No Iterations 59
[2] Bidomain phiE solve debug: proc=2 completed solve, outerIter=2
[3] Bidomain phiE solve debug: proc=3 completed solve, outerIter=2
[1] Bidomain phiE solve debug: proc=1 completed solve, outerIter=2
[5] Bidomain phiE solve debug: proc=5 completed solve, outerIter=2
[4] Bidomain phiE solve debug: proc=4 completed solve, outerIter=2
[0] Bidomain phiE solve debug: proc=0 completed solve, outerIter=2
DICPCG:  Solving for Vm, Initial residual = 5.16786e-07, Final residual = 6.03821e-16, No Iterations 4
ExecutionTime = 0.01 s  ClockTime = 0 s

Time = 0.0134529

DEBUG cell=0 t=0.0112108→0.0134529 step=0.00224215 V=-0.989834 u1=0.0280234 u2=0.985531 u3=0 Iion=1.54612
DEBUG cell=0 t=0.0112108→0.0134529 step=0.0201793 V=-0.989834 u1=0.029182 u2=0.983353 u3=0 Iion=1.54552
[2] Bidomain phiE reference debug: proc=2 point=(0.125 0.05 0.05) refCell=-1 ownsReference=0
[3] Bidomain phiE reference debug: proc=3 point=(0.125 0.05 0.05) refCell=-1 ownsReference=0
[4] Bidomain phiE reference debug: proc=4 point=(0.125 0.05 0.05) refCell=2 ownsReference=1
[5] Bidomain phiE reference debug: proc=5 point=(0.125 0.05 0.05) refCell=-1 ownsReference=0
[1] Bidomain phiE reference debug: proc=1 point=(0.125 0.05 0.05) refCell=-1 ownsReference=0
[0] Bidomain phiE reference debug: proc=0 point=(0.125 0.05 0.05) refCell=-1 ownsReference=0
Bidomain phiE reference summary: ownerCount=1 ownerProc=4 point=(0.125 0.05 0.05)
PIMPLE: iteration 1
[1] Bidomain phiE solve debug: proc=1 entering solve, refCell=-1 refValue=0 outerIter=1
[0] Bidomain phiE solve debug: proc=0 entering solve, refCell=-1 refValue=0 outerIter=1
[2] Bidomain phiE solve debug: proc=2 entering solve, refCell=-1 refValue=0 outerIter=1
[4] Bidomain phiE solve debug: proc=4 entering solve, refCell=2 refValue=0 outerIter=1
[3] Bidomain phiE solve debug: proc=3 entering solve, refCell=-1 refValue=0 outerIter=1
[5] Bidomain phiE solve debug: proc=5 entering solve, refCell=-1 refValue=0 outerIter=1
DICPCG:  Solving for phiE, Initial residual = 4.56634e-07, Final residual = 8.92309e-16, No Iterations 50
[2] Bidomain phiE solve debug: proc=2 completed solve, outerIter=1
[3] Bidomain phiE solve debug: proc=3 completed solve, outerIter=1
[4] Bidomain phiE solve debug: proc=4 completed solve, outerIter=1
[1] Bidomain phiE solve debug: proc=1 completed solve, outerIter=1
[5] Bidomain phiE solve debug: proc=5 completed solve, outerIter=1
[0] Bidomain phiE solve debug: proc=0 completed solve, outerIter=1
DICPCG:  Solving for Vm, Initial residual = 0.000522327, Final residual = 6.14922e-17, No Iterations 6
PIMPLE: iteration 2
[0] Bidomain phiE solve debug: proc=0 entering solve, refCell=-1 refValue=0 outerIter=2
[3] Bidomain phiE solve debug: proc=3 entering solve, refCell=-1 refValue=0 outerIter=2
[1] Bidomain phiE solve debug: proc=1 entering solve, refCell=-1 refValue=0 outerIter=2
[4] Bidomain phiE solve debug: proc=4 entering solve, refCell=2 refValue=0 outerIter=2
[2] Bidomain phiE solve debug: proc=2 entering solve, refCell=-1 refValue=0 outerIter=2
[5] Bidomain phiE solve debug: proc=5 entering solve, refCell=-1 refValue=0 outerIter=2
DICPCG:  Solving for phiE, Initial residual = 0.000461561, Final residual = 5.57628e-16, No Iterations 59
[2] Bidomain phiE solve debug: proc=2 completed solve, outerIter=2
[3] Bidomain phiE solve debug: proc=3 completed solve, outerIter=2
[1] Bidomain phiE solve debug: proc=1 completed solve, outerIter=2
[4] Bidomain phiE solve debug: proc=4 completed solve, outerIter=2
[0] Bidomain phiE solve debug: proc=0 completed solve, outerIter=2
[5] Bidomain phiE solve debug: proc=5 completed solve, outerIter=2
DICPCG:  Solving for Vm, Initial residual = 5.1558e-07, Final residual = 6.02436e-16, No Iterations 4
ExecutionTime = 0.01 s  ClockTime = 0 s

Time = 0.0156951

DEBUG cell=0 t=0.0134529→0.0156951 step=0.00224215 V=-0.990868 u1=0.029182 u2=0.983353 u3=0 Iion=1.54552
DEBUG cell=0 t=0.0134529→0.0156951 step=0.0201793 V=-0.990868 u1=0.0303416 u2=0.981184 u3=0 Iion=1.54493
[2] Bidomain phiE reference debug: proc=2 point=(0.125 0.05 0.05) refCell=-1 ownsReference=0
[3] Bidomain phiE reference debug: proc=3 point=(0.125 0.05 0.05) refCell=-1 ownsReference=0
[4] Bidomain phiE reference debug: proc=4 point=(0.125 0.05 0.05) refCell=2 ownsReference=1
[0] Bidomain phiE reference debug: proc=0 point=(0.125 0.05 0.05) refCell=-1 ownsReference=0
Bidomain phiE reference summary: ownerCount=1 ownerProc=4 point=(0.125 0.05 0.05)
[5] Bidomain phiE reference debug: proc=5 point=(0.125 0.05 0.05) refCell=-1 ownsReference=0
[1] Bidomain phiE reference debug: proc=1 point=(0.125 0.05 0.05) refCell=-1 ownsReference=0
PIMPLE: iteration 1
[0] Bidomain phiE solve debug: proc=0 entering solve, refCell=-1 refValue=0 outerIter=1
[2] Bidomain phiE solve debug: proc=2 entering solve, refCell=-1 refValue=0 outerIter=1
[1] Bidomain phiE solve debug: proc=1 entering solve, refCell=-1 refValue=0 outerIter=1
[3] Bidomain phiE solve debug: proc=3 entering solve, refCell=-1 refValue=0 outerIter=1
[5] Bidomain phiE solve debug: proc=5 entering solve, refCell=-1 refValue=0 outerIter=1
[4] Bidomain phiE solve debug: proc=4 entering solve, refCell=2 refValue=0 outerIter=1
DICPCG:  Solving for phiE, Initial residual = 4.55569e-07, Final residual = 8.87353e-16, No Iterations 50
[0] Bidomain phiE solve debug: proc=0 completed solve, outerIter=1
[3] Bidomain phiE solve debug: proc=3 completed solve, outerIter=1
[2] Bidomain phiE solve debug: proc=2 completed solve, outerIter=1
[4] Bidomain phiE solve debug: proc=4 completed solve, outerIter=1
[1] Bidomain phiE solve debug: proc=1 completed solve, outerIter=1
[5] Bidomain phiE solve debug: proc=5 completed solve, outerIter=1
DICPCG:  Solving for Vm, Initial residual = 0.000521109, Final residual = 6.13489e-17, No Iterations 6
PIMPLE: iteration 2
[0] Bidomain phiE solve debug: proc=0 entering solve, refCell=-1 refValue=0 outerIter=2
[2] Bidomain phiE solve debug: proc=2 entering solve, refCell=-1 refValue=0 outerIter=2
[4] Bidomain phiE solve debug: proc=4 entering solve, refCell=2 refValue=0 outerIter=2
[1] Bidomain phiE solve debug: proc=1 entering solve, refCell=-1 refValue=0 outerIter=2
[5] Bidomain phiE solve debug: proc=5 entering solve, refCell=-1 refValue=0 outerIter=2
[3] Bidomain phiE solve debug: proc=3 entering solve, refCell=-1 refValue=0 outerIter=2
DICPCG:  Solving for phiE, Initial residual = 0.000460485, Final residual = 5.56292e-16, No Iterations 59
[2] Bidomain phiE solve debug: proc=2 completed solve, outerIter=2
[3] Bidomain phiE solve debug: proc=3 completed solve, outerIter=2
[0] Bidomain phiE solve debug: proc=0 completed solve, outerIter=2
[1] Bidomain phiE solve debug: proc=1 completed solve, outerIter=2
[5] Bidomain phiE solve debug: proc=5 completed solve, outerIter=2
[4] Bidomain phiE solve debug: proc=4 completed solve, outerIter=2
DICPCG:  Solving for Vm, Initial residual = 5.14379e-07, Final residual = 6.01054e-16, No Iterations 4
ExecutionTime = 0.01 s  ClockTime = 0 s

Time = 0.0179372

DEBUG cell=0 t=0.0156951→0.0179372 step=0.00224215 V=-0.991901 u1=0.0303416 u2=0.981184 u3=0 Iion=1.54493
DEBUG cell=0 t=0.0156951→0.0179372 step=0.0201793 V=-0.991901 u1=0.0315023 u2=0.979025 u3=0 Iion=1.54434
[2] Bidomain phiE reference debug: proc=2 point=(0.125 0.05 0.05) refCell=-1 ownsReference=0
[3] Bidomain phiE reference debug: proc=3 point=(0.125 0.05 0.05) refCell=-1 ownsReference=0
[4] Bidomain phiE reference debug: proc=4 point=(0.125 0.05 0.05) refCell=2 ownsReference=1
[5] Bidomain phiE reference debug: proc=5 point=(0.125 0.05 0.05) refCell=-1 ownsReference=0
[1] Bidomain phiE reference debug: proc=1 point=(0.125 0.05 0.05) refCell=-1 ownsReference=0
[0] Bidomain phiE reference debug: proc=0 point=(0.125 0.05 0.05) refCell=-1 ownsReference=0
Bidomain phiE reference summary: ownerCount=1 ownerProc=4 point=(0.125 0.05 0.05)
PIMPLE: iteration 1
[0] Bidomain phiE solve debug: proc=0 entering solve, refCell=-1 refValue=0 outerIter=1
[1] Bidomain phiE solve debug: proc=1 entering solve, refCell=-1 refValue=0 outerIter=1
[3] Bidomain phiE solve debug: proc=3 entering solve, refCell=-1 refValue=0 outerIter=1
[4] Bidomain phiE solve debug: proc=4 entering solve, refCell=2 refValue=0 outerIter=1
[2] Bidomain phiE solve debug: proc=2 entering solve, refCell=-1 refValue=0 outerIter=1
[5] Bidomain phiE solve debug: proc=5 entering solve, refCell=-1 refValue=0 outerIter=1
DICPCG:  Solving for phiE, Initial residual = 4.54507e-07, Final residual = 8.82435e-16, No Iterations 50
[0] Bidomain phiE solve debug: proc=0 completed solve, outerIter=1
[2] Bidomain phiE solve debug: proc=2 completed solve, outerIter=1
[3] Bidomain phiE solve debug: proc=3 completed solve, outerIter=1
[4] Bidomain phiE solve debug: proc=4 completed solve, outerIter=1
[1] Bidomain phiE solve debug: proc=1 completed solve, outerIter=1
[5] Bidomain phiE solve debug: proc=5 completed solve, outerIter=1
DICPCG:  Solving for Vm, Initial residual = 0.000519895, Final residual = 6.12063e-17, No Iterations 6
PIMPLE: iteration 2
[0] Bidomain phiE solve debug: proc=0 entering solve, refCell=-1 refValue=0 outerIter=2
[1] Bidomain phiE solve debug: proc=1 entering solve, refCell=-1 refValue=0 outerIter=2
[4] Bidomain phiE solve debug: proc=4 entering solve, refCell=2 refValue=0 outerIter=2
[2] Bidomain phiE solve debug: proc=2 entering solve, refCell=-1 refValue=0 outerIter=2
[5] Bidomain phiE solve debug: proc=5 entering solve, refCell=-1 refValue=0 outerIter=2
[3] Bidomain phiE solve debug: proc=3 entering solve, refCell=-1 refValue=0 outerIter=2
DICPCG:  Solving for phiE, Initial residual = 0.000459412, Final residual = 5.5496e-16, No Iterations 59
[3] Bidomain phiE solve debug: proc=3 completed solve, outerIter=2
[2] Bidomain phiE solve debug: proc=2 completed solve, outerIter=2
[4] Bidomain phiE solve debug: proc=4 completed solve, outerIter=2
[1] Bidomain phiE solve debug: proc=1 completed solve, outerIter=2
[5] Bidomain phiE solve debug: proc=5 completed solve, outerIter=2
[0] Bidomain phiE solve debug: proc=0 completed solve, outerIter=2
DICPCG:  Solving for Vm, Initial residual = 5.13182e-07, Final residual = 5.99677e-16, No Iterations 4
ExecutionTime = 0.02 s  ClockTime = 0 s

Time = 0.0201793

DEBUG cell=0 t=0.0179372→0.0201793 step=0.00224215 V=-0.992933 u1=0.0315023 u2=0.979025 u3=0 Iion=1.54434
DEBUG cell=0 t=0.0179372→0.0201793 step=0.0201793 V=-0.992933 u1=0.032664 u2=0.976875 u3=0 Iion=1.54375
[2] Bidomain phiE reference debug: proc=2 point=(0.125 0.05 0.05) refCell=-1 ownsReference=0
[3] Bidomain phiE reference debug: proc=3 point=(0.125 0.05 0.05) refCell=-1 ownsReference=0
[4] Bidomain phiE reference debug: proc=4 point=(0.125 0.05 0.05) refCell=2 ownsReference=1
[5] Bidomain phiE reference debug: proc=5 point=(0.125 0.05 0.05) refCell=-1 ownsReference=0
[1] Bidomain phiE reference debug: proc=1 point=(0.125 0.05 0.05) refCell=-1 ownsReference=0
[0] Bidomain phiE reference debug: proc=0 point=(0.125 0.05 0.05) refCell=-1 ownsReference=0
Bidomain phiE reference summary: ownerCount=1 ownerProc=4 point=(0.125 0.05 0.05)
PIMPLE: iteration 1
[0] Bidomain phiE solve debug: proc=0 entering solve, refCell=-1 refValue=0 outerIter=1
[4] Bidomain phiE solve debug: proc=4 entering solve, refCell=2 refValue=0 outerIter=1
[1] Bidomain phiE solve debug: proc=1 entering solve, refCell=-1 refValue=0 outerIter=1
[2] Bidomain phiE solve debug: proc=2 entering solve, refCell=-1 refValue=0 outerIter=1
[3] Bidomain phiE solve debug: proc=3 entering solve, refCell=-1 refValue=0 outerIter=1
[5] Bidomain phiE solve debug: proc=5 entering solve, refCell=-1 refValue=0 outerIter=1
DICPCG:  Solving for phiE, Initial residual = 4.53449e-07, Final residual = 8.77586e-16, No Iterations 50
[2] Bidomain phiE solve debug: proc=2 completed solve, outerIter=1
[3] Bidomain phiE solve debug: proc=3 completed solve, outerIter=1
[4] Bidomain phiE solve debug: proc=4 completed solve, outerIter=1
[1] Bidomain phiE solve debug: proc=1 completed solve, outerIter=1
[5] Bidomain phiE solve debug: proc=5 completed solve, outerIter=1
[0] Bidomain phiE solve debug: proc=0 completed solve, outerIter=1
DICPCG:  Solving for Vm, Initial residual = 0.000518687, Final residual = 6.10642e-17, No Iterations 6
PIMPLE: iteration 2
[1] Bidomain phiE solve debug: proc=1 entering solve, refCell=-1 refValue=0 outerIter=2
[2] Bidomain phiE solve debug: proc=2 entering solve, refCell=-1 refValue=0 outerIter=2
[4] Bidomain phiE solve debug: proc=4 entering solve, refCell=2 refValue=0 outerIter=2
[3] Bidomain phiE solve debug: proc=3 entering solve, refCell=-1 refValue=0 outerIter=2
[0] Bidomain phiE solve debug: proc=0 entering solve, refCell=-1 refValue=0 outerIter=2
[5] Bidomain phiE solve debug: proc=5 entering solve, refCell=-1 refValue=0 outerIter=2
DICPCG:  Solving for phiE, Initial residual = 0.000458345, Final residual = 5.53634e-16, No Iterations 59
[2] Bidomain phiE solve debug: proc=2 completed solve, outerIter=2
[3] Bidomain phiE solve debug: proc=3 completed solve, outerIter=2
[4] Bidomain phiE solve debug: proc=4 completed solve, outerIter=2
[1] Bidomain phiE solve debug: proc=1 completed solve, outerIter=2
[5] Bidomain phiE solve debug: proc=5 completed solve, outerIter=2
[0] Bidomain phiE solve debug: proc=0 completed solve, outerIter=2
DICPCG:  Solving for Vm, Initial residual = 5.1199e-07, Final residual = 5.98306e-16, No Iterations 4
ExecutionTime = 0.02 s  ClockTime = 0 s

Time = 0.0224215

DEBUG cell=0 t=0.0201793→0.0224215 step=0.00224215 V=-0.993962 u1=0.032664 u2=0.976875 u3=0 Iion=1.54375
DEBUG cell=0 t=0.0201793→0.0224215 step=0.0201793 V=-0.993962 u1=0.0338268 u2=0.974735 u3=0 Iion=1.54316
[2] Bidomain phiE reference debug: proc=2 point=(0.125 0.05 0.05) refCell=-1 ownsReference=0
[3] Bidomain phiE reference debug: proc=3 point=(0.125 0.05 0.05) refCell=-1 ownsReference=0
[4] Bidomain phiE reference debug: proc=4 point=(0.125 0.05 0.05) refCell=2 ownsReference=1
[5] Bidomain phiE reference debug: proc=5 point=(0.125 0.05 0.05) refCell=-1 ownsReference=0
[1] Bidomain phiE reference debug: proc=1 point=(0.125 0.05 0.05) refCell=-1 ownsReference=0
[0] Bidomain phiE reference debug: proc=0 point=(0.125 0.05 0.05) refCell=-1 ownsReference=0
Bidomain phiE reference summary: ownerCount=1 ownerProc=4 point=(0.125 0.05 0.05)
PIMPLE: iteration 1
[3] Bidomain phiE solve debug: proc=3 entering solve, refCell=-1 refValue=0 outerIter=1
[1] Bidomain phiE solve debug: proc=1 entering solve, refCell=-1 refValue=0 outerIter=1
[2] Bidomain phiE solve debug: proc=2 entering solve, refCell=-1 refValue=0 outerIter=1
[4] Bidomain phiE solve debug: proc=4 entering solve, refCell=2 refValue=0 outerIter=1
[0] Bidomain phiE solve debug: proc=0 entering solve, refCell=-1 refValue=0 outerIter=1
[5] Bidomain phiE solve debug: proc=5 entering solve, refCell=-1 refValue=0 outerIter=1
DICPCG:  Solving for phiE, Initial residual = 4.52396e-07, Final residual = 8.72823e-16, No Iterations 50
[3] Bidomain phiE solve debug: proc=3 completed solve, outerIter=1
[2] Bidomain phiE solve debug: proc=2 completed solve, outerIter=1
[4] Bidomain phiE solve debug: proc=4 completed solve, outerIter=1
[5] Bidomain phiE solve debug: proc=5 completed solve, outerIter=1
[1] Bidomain phiE solve debug: proc=1 completed solve, outerIter=1
[0] Bidomain phiE solve debug: proc=0 completed solve, outerIter=1
DICPCG:  Solving for Vm, Initial residual = 0.000517484, Final residual = 6.09227e-17, No Iterations 6
PIMPLE: iteration 2
[1] Bidomain phiE solve debug: proc=1 entering solve, refCell=-1 refValue=0 outerIter=2
[3] Bidomain phiE solve debug: proc=3 entering solve, refCell=-1 refValue=0 outerIter=2
[5] Bidomain phiE solve debug: proc=5 entering solve, refCell=-1 refValue=0 outerIter=2
[4] Bidomain phiE solve debug: proc=4 entering solve, refCell=2 refValue=0 outerIter=2
[2] Bidomain phiE solve debug: proc=2 entering solve, refCell=-1 refValue=0 outerIter=2
[0] Bidomain phiE solve debug: proc=0 entering solve, refCell=-1 refValue=0 outerIter=2
DICPCG:  Solving for phiE, Initial residual = 0.000457281, Final residual = 5.52315e-16, No Iterations 59
[2] Bidomain phiE solve debug: proc=2 completed solve, outerIter=2
[3] Bidomain phiE solve debug: proc=3 completed solve, outerIter=2
[1] Bidomain phiE solve debug: proc=1 completed solve, outerIter=2
[4] Bidomain phiE solve debug: proc=4 completed solve, outerIter=2
[0] Bidomain phiE solve debug: proc=0 completed solve, outerIter=2
[5] Bidomain phiE solve debug: proc=5 completed solve, outerIter=2
DICPCG:  Solving for Vm, Initial residual = 5.10803e-07, Final residual = 5.96941e-16, No Iterations 4
ExecutionTime = 0.02 s  ClockTime = 0 s

Time = 0.0246636

DEBUG cell=0 t=0.0224215→0.0246636 step=0.00224215 V=-0.994991 u1=0.0338268 u2=0.974735 u3=0 Iion=1.54316
DEBUG cell=0 t=0.0224215→0.0246636 step=0.0201793 V=-0.994991 u1=0.0349907 u2=0.972605 u3=0 Iion=1.54258
[2] Bidomain phiE reference debug: proc=2 point=(0.125 0.05 0.05) refCell=-1 ownsReference=0
[3] Bidomain phiE reference debug: proc=3 point=(0.125 0.05 0.05) refCell=-1 ownsReference=0
[4] Bidomain phiE reference debug: proc=4 point=(0.125 0.05 0.05) refCell=2 ownsReference=1
[5] Bidomain phiE reference debug: proc=5 point=(0.125 0.05 0.05) refCell=-1 ownsReference=0
[1] Bidomain phiE reference debug: proc=1 point=(0.125 0.05 0.05) refCell=-1 ownsReference=0
[0] Bidomain phiE reference debug: proc=0 point=(0.125 0.05 0.05) refCell=-1 ownsReference=0
Bidomain phiE reference summary: ownerCount=1 ownerProc=4 point=(0.125 0.05 0.05)
PIMPLE: iteration 1
[0] Bidomain phiE solve debug: proc=0 entering solve, refCell=-1 refValue=0 outerIter=1
[2] Bidomain phiE solve debug: proc=2 entering solve, refCell=-1 refValue=0 outerIter=1
[4] Bidomain phiE solve debug: proc=4 entering solve, refCell=2 refValue=0 outerIter=1
[3] Bidomain phiE solve debug: proc=3 entering solve, refCell=-1 refValue=0 outerIter=1
[1] Bidomain phiE solve debug: proc=1 entering solve, refCell=-1 refValue=0 outerIter=1
[5] Bidomain phiE solve debug: proc=5 entering solve, refCell=-1 refValue=0 outerIter=1
DICPCG:  Solving for phiE, Initial residual = 4.51347e-07, Final residual = 8.68186e-16, No Iterations 50
[0] Bidomain phiE solve debug: proc=0 completed solve, outerIter=1
[2] Bidomain phiE solve debug: proc=2 completed solve, outerIter=1
[3] Bidomain phiE solve debug: proc=3 completed solve, outerIter=1
[4] Bidomain phiE solve debug: proc=4 completed solve, outerIter=1
[1] Bidomain phiE solve debug: proc=1 completed solve, outerIter=1
[5] Bidomain phiE solve debug: proc=5 completed solve, outerIter=1
DICPCG:  Solving for Vm, Initial residual = 0.000516286, Final residual = 6.07819e-17, No Iterations 6
PIMPLE: iteration 2
[0] Bidomain phiE solve debug: proc=0 entering solve, refCell=-1 refValue=0 outerIter=2
[2] Bidomain phiE solve debug: proc=2 entering solve, refCell=-1 refValue=0 outerIter=2
[1] Bidomain phiE solve debug: proc=1 entering solve, refCell=-1 refValue=0 outerIter=2
[3] Bidomain phiE solve debug: proc=3 entering solve, refCell=-1 refValue=0 outerIter=2
[4] Bidomain phiE solve debug: proc=4 entering solve, refCell=2 refValue=0 outerIter=2
[5] Bidomain phiE solve debug: proc=5 entering solve, refCell=-1 refValue=0 outerIter=2
DICPCG:  Solving for phiE, Initial residual = 0.000456223, Final residual = 5.51001e-16, No Iterations 59
[0] Bidomain phiE solve debug: proc=0 completed solve, outerIter=2
[3] Bidomain phiE solve debug: proc=3 completed solve, outerIter=2
[2] Bidomain phiE solve debug: proc=2 completed solve, outerIter=2
[4] Bidomain phiE solve debug: proc=4 completed solve, outerIter=2
[1] Bidomain phiE solve debug: proc=1 completed solve, outerIter=2
[5] Bidomain phiE solve debug: proc=5 completed solve, outerIter=2
DICPCG:  Solving for Vm, Initial residual = 5.09621e-07, Final residual = 5.95582e-16, No Iterations 4
ExecutionTime = 0.02 s  ClockTime = 0 s

Time = 0.0269058

DEBUG cell=0 t=0.0246636→0.0269058 step=0.00224215 V=-0.996018 u1=0.0349907 u2=0.972605 u3=0 Iion=1.54258
DEBUG cell=0 t=0.0246636→0.0269058 step=0.0201793 V=-0.996018 u1=0.0361556 u2=0.970484 u3=0 Iion=1.542
[2] Bidomain phiE reference debug: proc=2 point=(0.125 0.05 0.05) refCell=-1 ownsReference=0
[3] Bidomain phiE reference debug: proc=3 point=(0.125 0.05 0.05) refCell=-1 ownsReference=0
[4] Bidomain phiE reference debug: proc=4 point=(0.125 0.05 0.05) refCell=2 ownsReference=1
[5] Bidomain phiE reference debug: proc=5 point=(0.125 0.05 0.05) refCell=-1 ownsReference=0
[1] Bidomain phiE reference debug: proc=1 point=(0.125 0.05 0.05) refCell=-1 ownsReference=0
[0] Bidomain phiE reference debug: proc=0 point=(0.125 0.05 0.05) refCell=-1 ownsReference=0
Bidomain phiE reference summary: ownerCount=1 ownerProc=4 point=(0.125 0.05 0.05)
PIMPLE: iteration 1
[0] Bidomain phiE solve debug: proc=0 entering solve, refCell=-1 refValue=0 outerIter=1
[2] Bidomain phiE solve debug: proc=2 entering solve, refCell=-1 refValue=0 outerIter=1
[3] Bidomain phiE solve debug: proc=3 entering solve, refCell=-1 refValue=0 outerIter=1
[1] Bidomain phiE solve debug: proc=1 entering solve, refCell=-1 refValue=0 outerIter=1
[5] Bidomain phiE solve debug: proc=5 entering solve, refCell=-1 refValue=0 outerIter=1
[4] Bidomain phiE solve debug: proc=4 entering solve, refCell=2 refValue=0 outerIter=1
DICPCG:  Solving for phiE, Initial residual = 4.50303e-07, Final residual = 8.63605e-16, No Iterations 50
[3] Bidomain phiE solve debug: proc=3 completed solve, outerIter=1
[4] Bidomain phiE solve debug: proc=4 completed solve, outerIter=1
[0] Bidomain phiE solve debug: proc=0 completed solve, outerIter=1
[5] Bidomain phiE solve debug: proc=5 completed solve, outerIter=1
[2] Bidomain phiE solve debug: proc=2 completed solve, outerIter=1
[1] Bidomain phiE solve debug: proc=1 completed solve, outerIter=1
DICPCG:  Solving for Vm, Initial residual = 0.000515094, Final residual = 6.06416e-17, No Iterations 6
PIMPLE: iteration 2
[4] Bidomain phiE solve debug: proc=4 entering solve, refCell=2 refValue=0 outerIter=2
[0] Bidomain phiE solve debug: proc=0 entering solve, refCell=-1 refValue=0 outerIter=2
[3] Bidomain phiE solve debug: proc=3 entering solve, refCell=-1 refValue=0 outerIter=2
[5] Bidomain phiE solve debug: proc=5 entering solve, refCell=-1 refValue=0 outerIter=2
[1] Bidomain phiE solve debug: proc=1 entering solve, refCell=-1 refValue=0 outerIter=2
[2] Bidomain phiE solve debug: proc=2 entering solve, refCell=-1 refValue=0 outerIter=2
DICPCG:  Solving for phiE, Initial residual = 0.000455169, Final residual = 5.49693e-16, No Iterations 59
[0] Bidomain phiE solve debug: proc=0 completed solve, outerIter=2
[3] Bidomain phiE solve debug: proc=3 completed solve, outerIter=2
[5] Bidomain phiE solve debug: proc=5 completed solve, outerIter=2
[4] Bidomain phiE solve debug: proc=4 completed solve, outerIter=2
[1] Bidomain phiE solve debug: proc=1 completed solve, outerIter=2
[2] Bidomain phiE solve debug: proc=2 completed solve, outerIter=2
DICPCG:  Solving for Vm, Initial residual = 5.08444e-07, Final residual = 5.94228e-16, No Iterations 4
ExecutionTime = 0.02 s  ClockTime = 0 s

Time = 0.0291479

DEBUG cell=0 t=0.0269058→0.0291479 step=0.00224215 V=-0.997044 u1=0.0361556 u2=0.970484 u3=0 Iion=1.542
DEBUG cell=0 t=0.0269058→0.0291479 step=0.0201793 V=-0.997044 u1=0.0373216 u2=0.968372 u3=0 Iion=1.54142
[4] Bidomain phiE reference debug: proc=4 point=(0.125 0.05 0.05) refCell=2 ownsReference=1
[0] Bidomain phiE reference debug: proc=0 point=(0.125 0.05 0.05) refCell=-1 ownsReference=0
Bidomain phiE reference summary: ownerCount=1 ownerProc=4 point=(0.125 0.05 0.05)
PIMPLE: iteration 1
[3] Bidomain phiE reference debug: proc=3 point=(0.125 0.05 0.05) refCell=-1 ownsReference=0
[5] Bidomain phiE reference debug: proc=5 point=(0.125 0.05 0.05) refCell=-1 ownsReference=0
[1] Bidomain phiE reference debug: proc=1 point=(0.125 0.05 0.05) refCell=-1 ownsReference=0
[2] Bidomain phiE reference debug: proc=2 point=(0.125 0.05 0.05) refCell=-1 ownsReference=0
[0] Bidomain phiE solve debug: proc=0 entering solve, refCell=-1 refValue=0 outerIter=1
[4] Bidomain phiE solve debug: proc=4 entering solve, refCell=2 refValue=0 outerIter=1
[1] Bidomain phiE solve debug: proc=1 entering solve, refCell=-1 refValue=0 outerIter=1
[3] Bidomain phiE solve debug: proc=3 entering solve, refCell=-1 refValue=0 outerIter=1
[5] Bidomain phiE solve debug: proc=5 entering solve, refCell=-1 refValue=0 outerIter=1
[2] Bidomain phiE solve debug: proc=2 entering solve, refCell=-1 refValue=0 outerIter=1
DICPCG:  Solving for phiE, Initial residual = 4.49263e-07, Final residual = 8.59071e-16, No Iterations 50
[0] Bidomain phiE solve debug: proc=0 completed solve, outerIter=1
[3] Bidomain phiE solve debug: proc=3 completed solve, outerIter=1
[4] Bidomain phiE solve debug: proc=4 completed solve, outerIter=1
[2] Bidomain phiE solve debug: proc=2 completed solve, outerIter=1
[1] Bidomain phiE solve debug: proc=1 completed solve, outerIter=1
[5] Bidomain phiE solve debug: proc=5 completed solve, outerIter=1
DICPCG:  Solving for Vm, Initial residual = 0.000513906, Final residual = 6.0502e-17, No Iterations 6
PIMPLE: iteration 2
[0] Bidomain phiE solve debug: proc=0 entering solve, refCell=-1 refValue=0 outerIter=2
[3] Bidomain phiE solve debug: proc=3 entering solve, refCell=-1 refValue=0 outerIter=2
[1] Bidomain phiE solve debug: proc=1 entering solve, refCell=-1 refValue=0 outerIter=2
[4] Bidomain phiE solve debug: proc=4 entering solve, refCell=2 refValue=0 outerIter=2
[2] Bidomain phiE solve debug: proc=2 entering solve, refCell=-1 refValue=0 outerIter=2
[5] Bidomain phiE solve debug: proc=5 entering solve, refCell=-1 refValue=0 outerIter=2
DICPCG:  Solving for phiE, Initial residual = 0.00045412, Final residual = 5.48391e-16, No Iterations 59
[0] Bidomain phiE solve debug: proc=0 completed solve, outerIter=2
[3] Bidomain phiE solve debug: proc=3 completed solve, outerIter=2
[2] Bidomain phiE solve debug: proc=2 completed solve, outerIter=2
[4] Bidomain phiE solve debug: proc=4 completed solve, outerIter=2
[5] Bidomain phiE solve debug: proc=5 completed solve, outerIter=2
[1] Bidomain phiE solve debug: proc=1 completed solve, outerIter=2
DICPCG:  Solving for Vm, Initial residual = 5.07273e-07, Final residual = 5.92881e-16, No Iterations 4
ExecutionTime = 0.02 s  ClockTime = 0 s

Time = 0.0313901

DEBUG cell=0 t=0.0291479→0.0313901 step=0.00224215 V=-0.998069 u1=0.0373216 u2=0.968372 u3=0 Iion=1.54142
DEBUG cell=0 t=0.0291479→0.0313901 step=0.0201793 V=-0.998069 u1=0.0384886 u2=0.966269 u3=0 Iion=1.54085
[3] Bidomain phiE reference debug: proc=3 point=(0.125 0.05 0.05) refCell=-1 ownsReference=0
[2] Bidomain phiE reference debug: proc=2 point=(0.125 0.05 0.05) refCell=-1 ownsReference=0
[4] Bidomain phiE reference debug: proc=4 point=(0.125 0.05 0.05) refCell=2 ownsReference=1
[5] Bidomain phiE reference debug: proc=5 point=(0.125 0.05 0.05) refCell=-1 ownsReference=0
[0] Bidomain phiE reference debug: proc=0 point=(0.125 0.05 0.05) refCell=-1 ownsReference=0
Bidomain phiE reference summary: ownerCount=1 ownerProc=4 point=(0.125 0.05 0.05)
[1] Bidomain phiE reference debug: proc=1 point=(0.125 0.05 0.05) refCell=-1 ownsReference=0
PIMPLE: iteration 1
[0] Bidomain phiE solve debug: proc=0 entering solve, refCell=-1 refValue=0 outerIter=1
[4] Bidomain phiE solve debug: proc=4 entering solve, refCell=2 refValue=0 outerIter=1
[1] Bidomain phiE solve debug: proc=1 entering solve, refCell=-1 refValue=0 outerIter=1
[2] Bidomain phiE solve debug: proc=2 entering solve, refCell=-1 refValue=0 outerIter=1
[5] Bidomain phiE solve debug: proc=5 entering solve, refCell=-1 refValue=0 outerIter=1
[3] Bidomain phiE solve debug: proc=3 entering solve, refCell=-1 refValue=0 outerIter=1
DICPCG:  Solving for phiE, Initial residual = 4.48228e-07, Final residual = 8.54585e-16, No Iterations 50
[0] Bidomain phiE solve debug: proc=0 completed solve, outerIter=1
[3] Bidomain phiE solve debug: proc=3 completed solve, outerIter=1
[2] Bidomain phiE solve debug: proc=2 completed solve, outerIter=1
[5] Bidomain phiE solve debug: proc=5 completed solve, outerIter=1
[4] Bidomain phiE solve debug: proc=4 completed solve, outerIter=1
[1] Bidomain phiE solve debug: proc=1 completed solve, outerIter=1
DICPCG:  Solving for Vm, Initial residual = 0.000512724, Final residual = 6.0363e-17, No Iterations 6
PIMPLE: iteration 2
[0] Bidomain phiE solve debug: proc=0 entering solve, refCell=-1 refValue=0 outerIter=2
[4] Bidomain phiE solve debug: proc=4 entering solve, refCell=2 refValue=0 outerIter=2
[3] Bidomain phiE solve debug: proc=3 entering solve, refCell=-1 refValue=0 outerIter=2
[1] Bidomain phiE solve debug: proc=1 entering solve, refCell=-1 refValue=0 outerIter=2
[5] Bidomain phiE solve debug: proc=5 entering solve, refCell=-1 refValue=0 outerIter=2
[2] Bidomain phiE solve debug: proc=2 entering solve, refCell=-1 refValue=0 outerIter=2
DICPCG:  Solving for phiE, Initial residual = 0.000453075, Final residual = 5.47094e-16, No Iterations 59
[0] Bidomain phiE solve debug: proc=0 completed solve, outerIter=2
[3] Bidomain phiE solve debug: proc=3 completed solve, outerIter=2
[2] Bidomain phiE solve debug: proc=2 completed solve, outerIter=2
[4] Bidomain phiE solve debug: proc=4 completed solve, outerIter=2
[1] Bidomain phiE solve debug: proc=1 completed solve, outerIter=2
[5] Bidomain phiE solve debug: proc=5 completed solve, outerIter=2
DICPCG:  Solving for Vm, Initial residual = 5.06107e-07, Final residual = 5.91539e-16, No Iterations 4
ExecutionTime = 0.02 s  ClockTime = 0 s

Time = 0.0336322

DEBUG cell=0 t=0.0313901→0.0336322 step=0.00224215 V=-0.999092 u1=0.0384886 u2=0.966269 u3=0 Iion=1.54085
DEBUG cell=0 t=0.0313901→0.0336322 step=0.0201793 V=-0.999092 u1=0.0396567 u2=0.964176 u3=0 Iion=1.54028
[3] Bidomain phiE reference debug: proc=3 point=(0.125 0.05 0.05) refCell=-1 ownsReference=0
[2] Bidomain phiE reference debug: proc=2 point=(0.125 0.05 0.05) refCell=-1 ownsReference=0
[4] Bidomain phiE reference debug: proc=4 point=(0.125 0.05 0.05) refCell=2 ownsReference=1
[5] Bidomain phiE reference debug: proc=5 point=(0.125 0.05 0.05) refCell=-1 ownsReference=0
[1] Bidomain phiE reference debug: proc=1 point=(0.125 0.05 0.05) refCell=-1 ownsReference=0
[0] Bidomain phiE reference debug: proc=0 point=(0.125 0.05 0.05) refCell=-1 ownsReference=0
Bidomain phiE reference summary: ownerCount=1 ownerProc=4 point=(0.125 0.05 0.05)
PIMPLE: iteration 1
[0] Bidomain phiE solve debug: proc=0 entering solve, refCell=-1 refValue=0 outerIter=1
[4] Bidomain phiE solve debug: proc=4 entering solve, refCell=2 refValue=0 outerIter=1
[3] Bidomain phiE solve debug: proc=3 entering solve, refCell=-1 refValue=0 outerIter=1
[1] Bidomain phiE solve debug: proc=1 entering solve, refCell=-1 refValue=0 outerIter=1
[2] Bidomain phiE solve debug: proc=2 entering solve, refCell=-1 refValue=0 outerIter=1
[5] Bidomain phiE solve debug: proc=5 entering solve, refCell=-1 refValue=0 outerIter=1
DICPCG:  Solving for phiE, Initial residual = 4.47197e-07, Final residual = 8.50148e-16, No Iterations 50
[0] Bidomain phiE solve debug: proc=0 completed solve, outerIter=1
[3] Bidomain phiE solve debug: proc=3 completed solve, outerIter=1
[2] Bidomain phiE solve debug: proc=2 completed solve, outerIter=1
[5] Bidomain phiE solve debug: proc=5 completed solve, outerIter=1
[4] Bidomain phiE solve debug: proc=4 completed solve, outerIter=1
[1] Bidomain phiE solve debug: proc=1 completed solve, outerIter=1
DICPCG:  Solving for Vm, Initial residual = 0.000511547, Final residual = 6.02246e-17, No Iterations 6
PIMPLE: iteration 2
[0] Bidomain phiE solve debug: proc=0 entering solve, refCell=-1 refValue=0 outerIter=2
[3] Bidomain phiE solve debug: proc=3 entering solve, refCell=-1 refValue=0 outerIter=2
[4] Bidomain phiE solve debug: proc=4 entering solve, refCell=2 refValue=0 outerIter=2
[1] Bidomain phiE solve debug: proc=1 entering solve, refCell=-1 refValue=0 outerIter=2
[2] Bidomain phiE solve debug: proc=2 entering solve, refCell=-1 refValue=0 outerIter=2
[5] Bidomain phiE solve debug: proc=5 entering solve, refCell=-1 refValue=0 outerIter=2
DICPCG:  Solving for phiE, Initial residual = 0.000452035, Final residual = 5.45802e-16, No Iterations 59
[0] Bidomain phiE solve debug: proc=0 completed solve, outerIter=2
[2] Bidomain phiE solve debug: proc=2 completed solve, outerIter=2
[3] Bidomain phiE solve debug: proc=3 completed solve, outerIter=2
[4] Bidomain phiE solve debug: proc=4 completed solve, outerIter=2
[1] Bidomain phiE solve debug: proc=1 completed solve, outerIter=2
[5] Bidomain phiE solve debug: proc=5 completed solve, outerIter=2
DICPCG:  Solving for Vm, Initial residual = 5.04945e-07, Final residual = 5.90202e-16, No Iterations 4
ExecutionTime = 0.02 s  ClockTime = 0 s

Time = 0.0358744

DEBUG cell=0 t=0.0336322→0.0358744 step=0.00224215 V=-1.00011 u1=0.0396567 u2=0.964176 u3=0 Iion=1.54028
DEBUG cell=0 t=0.0336322→0.0358744 step=0.0201793 V=-1.00011 u1=0.0408258 u2=0.962092 u3=0 Iion=1.53971
[4] Bidomain phiE reference debug: proc=4 point=(0.125 0.05 0.05) refCell=2 ownsReference=1
[0] Bidomain phiE reference debug: proc=0 point=(0.125 0.05 0.05) refCell=-1 ownsReference=0
Bidomain phiE reference summary: ownerCount=1 ownerProc=4 point=(0.125 0.05 0.05)
PIMPLE: iteration 1
[1] Bidomain phiE reference debug: proc=1 point=(0.125 0.05 0.05) refCell=-1 ownsReference=0
[2] Bidomain phiE reference debug: proc=2 point=(0.125 0.05 0.05) refCell=-1 ownsReference=0
[3] Bidomain phiE reference debug: proc=3 point=(0.125 0.05 0.05) refCell=-1 ownsReference=0
[5] Bidomain phiE reference debug: proc=5 point=(0.125 0.05 0.05) refCell=-1 ownsReference=0
[0] Bidomain phiE solve debug: proc=0 entering solve, refCell=-1 refValue=0 outerIter=1
[4] Bidomain phiE solve debug: proc=4 entering solve, refCell=2 refValue=0 outerIter=1
[1] Bidomain phiE solve debug: proc=1 entering solve, refCell=-1 refValue=0 outerIter=1
[2] Bidomain phiE solve debug: proc=2 entering solve, refCell=-1 refValue=0 outerIter=1
[5] Bidomain phiE solve debug: proc=5 entering solve, refCell=-1 refValue=0 outerIter=1
[3] Bidomain phiE solve debug: proc=3 entering solve, refCell=-1 refValue=0 outerIter=1
DICPCG:  Solving for phiE, Initial residual = 4.46171e-07, Final residual = 8.45759e-16, No Iterations 50
[0] Bidomain phiE solve debug: proc=0 completed solve, outerIter=1
[2] Bidomain phiE solve debug: proc=2 completed solve, outerIter=1
[1] Bidomain phiE solve debug: proc=1 completed solve, outerIter=1
[4] Bidomain phiE solve debug: proc=4 completed solve, outerIter=1
[5] Bidomain phiE solve debug: proc=5 completed solve, outerIter=1
[3] Bidomain phiE solve debug: proc=3 completed solve, outerIter=1
DICPCG:  Solving for Vm, Initial residual = 0.000510375, Final residual = 6.00868e-17, No Iterations 6
PIMPLE: iteration 2
[4] Bidomain phiE solve debug: proc=4 entering solve, refCell=2 refValue=0 outerIter=2
[3] Bidomain phiE solve debug: proc=3 entering solve, refCell=-1 refValue=0 outerIter=2
[2] Bidomain phiE solve debug: proc=2 entering solve, refCell=-1 refValue=0 outerIter=2
[0] Bidomain phiE solve debug: proc=0 entering solve, refCell=-1 refValue=0 outerIter=2
[5] Bidomain phiE solve debug: proc=5 entering solve, refCell=-1 refValue=0 outerIter=2
[1] Bidomain phiE solve debug: proc=1 entering solve, refCell=-1 refValue=0 outerIter=2
DICPCG:  Solving for phiE, Initial residual = 0.000450999, Final residual = 5.44518e-16, No Iterations 59
[0] Bidomain phiE solve debug: proc=0 completed solve, outerIter=2
[2] Bidomain phiE solve debug: proc=2 completed solve, outerIter=2
[5] Bidomain phiE solve debug: proc=5 completed solve, outerIter=2
[4] Bidomain phiE solve debug: proc=4 completed solve, outerIter=2
[3] Bidomain phiE solve debug: proc=3 completed solve, outerIter=2
[1] Bidomain phiE solve debug: proc=1 completed solve, outerIter=2
DICPCG:  Solving for Vm, Initial residual = 5.03789e-07, Final residual = 5.88872e-16, No Iterations 4
ExecutionTime = 0.02 s  ClockTime = 0 s

Time = 0.0381165

DEBUG cell=0 t=0.0358744→0.0381165 step=0.00224215 V=-1.00113 u1=0.0408258 u2=0.962092 u3=0 Iion=1.53971
DEBUG cell=0 t=0.0358744→0.0381165 step=0.0201793 V=-1.00113 u1=0.0419959 u2=0.960017 u3=0 Iion=1.53915
[4] Bidomain phiE reference debug: proc=4 point=(0.125 0.05 0.05) refCell=2 ownsReference=1
[2] Bidomain phiE reference debug: proc=2 point=(0.125 0.05 0.05) refCell=-1 ownsReference=0
[5] Bidomain phiE reference debug: proc=5 point=(0.125 0.05 0.05) refCell=-1 ownsReference=0
[0] Bidomain phiE reference debug: proc=0 point=(0.125 0.05 0.05) refCell=-1 ownsReference=0
Bidomain phiE reference summary: ownerCount=1 ownerProc=4 point=(0.125 0.05 0.05)
PIMPLE: iteration 1
[3] Bidomain phiE reference debug: proc=3 point=(0.125 0.05 0.05) refCell=-1 ownsReference=0
[1] Bidomain phiE reference debug: proc=1 point=(0.125 0.05 0.05) refCell=-1 ownsReference=0
[0] Bidomain phiE solve debug: proc=0 entering solve, refCell=-1 refValue=0 outerIter=1
[4] Bidomain phiE solve debug: proc=4 entering solve, refCell=2 refValue=0 outerIter=1
[3] Bidomain phiE solve debug: proc=3 entering solve, refCell=-1 refValue=0 outerIter=1
[1] Bidomain phiE solve debug: proc=1 entering solve, refCell=-1 refValue=0 outerIter=1
[5] Bidomain phiE solve debug: proc=5 entering solve, refCell=-1 refValue=0 outerIter=1
[2] Bidomain phiE solve debug: proc=2 entering solve, refCell=-1 refValue=0 outerIter=1
DICPCG:  Solving for phiE, Initial residual = 4.45149e-07, Final residual = 8.41418e-16, No Iterations 50
[0] Bidomain phiE solve debug: proc=0 completed solve, outerIter=1
[2] Bidomain phiE solve debug: proc=2 completed solve, outerIter=1
[3] Bidomain phiE solve debug: proc=3 completed solve, outerIter=1
[5] Bidomain phiE solve debug: proc=5 completed solve, outerIter=1
[4] Bidomain phiE solve debug: proc=4 completed solve, outerIter=1
[1] Bidomain phiE solve debug: proc=1 completed solve, outerIter=1
DICPCG:  Solving for Vm, Initial residual = 0.000509208, Final residual = 5.99495e-17, No Iterations 6
PIMPLE: iteration 2
[0] Bidomain phiE solve debug: proc=0 entering solve, refCell=-1 refValue=0 outerIter=2
[3] Bidomain phiE solve debug: proc=3 entering solve, refCell=-1 refValue=0 outerIter=2
[4] Bidomain phiE solve debug: proc=4 entering solve, refCell=2 refValue=0 outerIter=2
[2] Bidomain phiE solve debug: proc=2 entering solve, refCell=-1 refValue=0 outerIter=2
[1] Bidomain phiE solve debug: proc=1 entering solve, refCell=-1 refValue=0 outerIter=2
[5] Bidomain phiE solve debug: proc=5 entering solve, refCell=-1 refValue=0 outerIter=2
DICPCG:  Solving for phiE, Initial residual = 0.000449967, Final residual = 5.43237e-16, No Iterations 59
[0] Bidomain phiE solve debug: proc=0 completed solve, outerIter=2
[2] Bidomain phiE solve debug: proc=2 completed solve, outerIter=2
[3] Bidomain phiE solve debug: proc=3 completed solve, outerIter=2
[5] Bidomain phiE solve debug: proc=5 completed solve, outerIter=2
[4] Bidomain phiE solve debug: proc=4 completed solve, outerIter=2
[1] Bidomain phiE solve debug: proc=1 completed solve, outerIter=2
DICPCG:  Solving for Vm, Initial residual = 5.02638e-07, Final residual = 5.87547e-16, No Iterations 4
ExecutionTime = 0.02 s  ClockTime = 0 s

Time = 0.0403587

DEBUG cell=0 t=0.0381165→0.0403587 step=0.00224215 V=-1.00215 u1=0.0419959 u2=0.960017 u3=0 Iion=1.53915
DEBUG cell=0 t=0.0381165→0.0403587 step=0.0201793 V=-1.00215 u1=0.0431671 u2=0.957951 u3=0 Iion=1.53859
[2] Bidomain phiE reference debug: proc=2 point=(0.125 0.05 0.05) refCell=-1 ownsReference=0
[4] Bidomain phiE reference debug: proc=4 point=(0.125 0.05 0.05) refCell=2 ownsReference=1
[3] Bidomain phiE reference debug: proc=3 point=(0.125 0.05 0.05) refCell=-1 ownsReference=0
[0] Bidomain phiE reference debug: proc=0 point=(0.125 0.05 0.05) refCell=-1 ownsReference=0
Bidomain phiE reference summary: ownerCount=1 ownerProc=4 point=(0.125 0.05 0.05)
PIMPLE: iteration 1
[5] Bidomain phiE reference debug: proc=5 point=(0.125 0.05 0.05) refCell=-1 ownsReference=0
[1] Bidomain phiE reference debug: proc=1 point=(0.125 0.05 0.05) refCell=-1 ownsReference=0
[0] Bidomain phiE solve debug: proc=0 entering solve, refCell=-1 refValue=0 outerIter=1
[2] Bidomain phiE solve debug: proc=2 entering solve, refCell=-1 refValue=0 outerIter=1
[4] Bidomain phiE solve debug: proc=4 entering solve, refCell=2 refValue=0 outerIter=1
[1] Bidomain phiE solve debug: proc=1 entering solve, refCell=-1 refValue=0 outerIter=1
[3] Bidomain phiE solve debug: proc=3 entering solve, refCell=-1 refValue=0 outerIter=1
[5] Bidomain phiE solve debug: proc=5 entering solve, refCell=-1 refValue=0 outerIter=1
DICPCG:  Solving for phiE, Initial residual = 4.44132e-07, Final residual = 8.37127e-16, No Iterations 50
[0] Bidomain phiE solve debug: proc=0 completed solve, outerIter=1
[2] Bidomain phiE solve debug: proc=2 completed solve, outerIter=1
[3] Bidomain phiE solve debug: proc=3 completed solve, outerIter=1
[5] Bidomain phiE solve debug: proc=5 completed solve, outerIter=1
[4] Bidomain phiE solve debug: proc=4 completed solve, outerIter=1
[1] Bidomain phiE solve debug: proc=1 completed solve, outerIter=1
DICPCG:  Solving for Vm, Initial residual = 0.000508046, Final residual = 5.98129e-17, No Iterations 6
PIMPLE: iteration 2
[0] Bidomain phiE solve debug: proc=0 entering solve, refCell=-1 refValue=0 outerIter=2
[2] Bidomain phiE solve debug: proc=2 entering solve, refCell=-1 refValue=0 outerIter=2
[1] Bidomain phiE solve debug: proc=1 entering solve, refCell=-1 refValue=0 outerIter=2
[4] Bidomain phiE solve debug: proc=4 entering solve, refCell=2 refValue=0 outerIter=2
[3] Bidomain phiE solve debug: proc=3 entering solve, refCell=-1 refValue=0 outerIter=2
[5] Bidomain phiE solve debug: proc=5 entering solve, refCell=-1 refValue=0 outerIter=2
DICPCG:  Solving for phiE, Initial residual = 0.000448941, Final residual = 5.41963e-16, No Iterations 59
[0] Bidomain phiE solve debug: proc=0 completed solve, outerIter=2
[2] Bidomain phiE solve debug: proc=2 completed solve, outerIter=2
[3] Bidomain phiE solve debug: proc=3 completed solve, outerIter=2
[5] Bidomain phiE solve debug: proc=5 completed solve, outerIter=2
[4] Bidomain phiE solve debug: proc=4 completed solve, outerIter=2
[1] Bidomain phiE solve debug: proc=1 completed solve, outerIter=2
DICPCG:  Solving for Vm, Initial residual = 5.01492e-07, Final residual = 5.86227e-16, No Iterations 4
ExecutionTime = 0.02 s  ClockTime = 0 s

Time = 0.0426008

DEBUG cell=0 t=0.0403587→0.0426008 step=0.00224215 V=-1.00317 u1=0.0431671 u2=0.957951 u3=0 Iion=1.53859
DEBUG cell=0 t=0.0403587→0.0426008 step=0.0201793 V=-1.00317 u1=0.0443393 u2=0.955894 u3=0 Iion=1.53803
[4] Bidomain phiE reference debug: proc=4 point=(0.125 0.05 0.05) refCell=2 ownsReference=1
[3] Bidomain phiE reference debug: proc=3 point=(0.125 0.05 0.05) refCell=-1 ownsReference=0
[0] Bidomain phiE reference debug: proc=0 point=(0.125 0.05 0.05) refCell=-1 ownsReference=0
Bidomain phiE reference summary: ownerCount=1 ownerProc=4 point=(0.125 0.05 0.05)
PIMPLE: iteration 1
[2] Bidomain phiE reference debug: proc=2 point=(0.125 0.05 0.05) refCell=-1 ownsReference=0
[5] Bidomain phiE reference debug: proc=5 point=(0.125 0.05 0.05) refCell=-1 ownsReference=0
[1] Bidomain phiE reference debug: proc=1 point=(0.125 0.05 0.05) refCell=-1 ownsReference=0
[1] Bidomain phiE solve debug: proc=1 entering solve, refCell=-1 refValue=0 outerIter=1
[3] Bidomain phiE solve debug: proc=3 entering solve, refCell=-1 refValue=0 outerIter=1
[2] Bidomain phiE solve debug: proc=2 entering solve, refCell=-1 refValue=0 outerIter=1
[0] Bidomain phiE solve debug: proc=0 entering solve, refCell=-1 refValue=0 outerIter=1
[5] Bidomain phiE solve debug: proc=5 entering solve, refCell=-1 refValue=0 outerIter=1
[4] Bidomain phiE solve debug: proc=4 entering solve, refCell=2 refValue=0 outerIter=1
DICPCG:  Solving for phiE, Initial residual = 4.43119e-07, Final residual = 8.32923e-16, No Iterations 50
[0] Bidomain phiE solve debug: proc=0 completed solve, outerIter=1
[2] Bidomain phiE solve debug: proc=2 completed solve, outerIter=1
[3] Bidomain phiE solve debug: proc=3 completed solve, outerIter=1
[5] Bidomain phiE solve debug: proc=5 completed solve, outerIter=1
[1] Bidomain phiE solve debug: proc=1 completed solve, outerIter=1
[4] Bidomain phiE solve debug: proc=4 completed solve, outerIter=1
DICPCG:  Solving for Vm, Initial residual = 0.000506889, Final residual = 5.96769e-17, No Iterations 6
PIMPLE: iteration 2
[0] Bidomain phiE solve debug: proc=0 entering solve, refCell=-1 refValue=0 outerIter=2
[3] Bidomain phiE solve debug: proc=3 entering solve, refCell=-1 refValue=0 outerIter=2
[1] Bidomain phiE solve debug: proc=1 entering solve, refCell=-1 refValue=0 outerIter=2
[2] Bidomain phiE solve debug: proc=2 entering solve, refCell=-1 refValue=0 outerIter=2
[5] Bidomain phiE solve debug: proc=5 entering solve, refCell=-1 refValue=0 outerIter=2
[4] Bidomain phiE solve debug: proc=4 entering solve, refCell=2 refValue=0 outerIter=2
DICPCG:  Solving for phiE, Initial residual = 0.000447918, Final residual = 5.40693e-16, No Iterations 59
[0] Bidomain phiE solve debug: proc=0 completed solve, outerIter=2
[2] Bidomain phiE solve debug: proc=2 completed solve, outerIter=2
[3] Bidomain phiE solve debug: proc=3 completed solve, outerIter=2
[5] Bidomain phiE solve debug: proc=5 completed solve, outerIter=2
[1] Bidomain phiE solve debug: proc=1 completed solve, outerIter=2
[4] Bidomain phiE solve debug: proc=4 completed solve, outerIter=2
DICPCG:  Solving for Vm, Initial residual = 5.0035e-07, Final residual = 5.84914e-16, No Iterations 4
ExecutionTime = 0.02 s  ClockTime = 0 s

Time = 0.044843

DEBUG cell=0 t=0.0426008→0.044843 step=0.00224215 V=-1.00419 u1=0.0443393 u2=0.955894 u3=0 Iion=1.53803
DEBUG cell=0 t=0.0426008→0.044843 step=0.0201793 V=-1.00419 u1=0.0455125 u2=0.953847 u3=0 Iion=1.53747
[3] Bidomain phiE reference debug: proc=3 point=(0.125 0.05 0.05) refCell=-1 ownsReference=0
[2] Bidomain phiE reference debug: proc=2 point=(0.125 0.05 0.05) refCell=-1 ownsReference=0
[5] Bidomain phiE reference debug: proc=5 point=(0.125 0.05 0.05) refCell=-1 ownsReference=0
[0] Bidomain phiE reference debug: proc=0 point=(0.125 0.05 0.05) refCell=-1 ownsReference=0
Bidomain phiE reference summary: ownerCount=1 ownerProc=4 point=(0.125 0.05 0.05)
[4] Bidomain phiE reference debug: proc=4 point=(0.125 0.05 0.05) refCell=2 ownsReference=1
[1] Bidomain phiE reference debug: proc=1 point=(0.125 0.05 0.05) refCell=-1 ownsReference=0
PIMPLE: iteration 1
[3] Bidomain phiE solve debug: proc=3 entering solve, refCell=-1 refValue=0 outerIter=1
[4] Bidomain phiE solve debug: proc=4 entering solve, refCell=2 refValue=0 outerIter=1
[0] Bidomain phiE solve debug: proc=0 entering solve, refCell=-1 refValue=0 outerIter=1
[2] Bidomain phiE solve debug: proc=2 entering solve, refCell=-1 refValue=0 outerIter=1
[5] Bidomain phiE solve debug: proc=5 entering solve, refCell=-1 refValue=0 outerIter=1
[1] Bidomain phiE solve debug: proc=1 entering solve, refCell=-1 refValue=0 outerIter=1
DICPCG:  Solving for phiE, Initial residual = 4.4211e-07, Final residual = 8.28781e-16, No Iterations 50
[3] Bidomain phiE solve debug: proc=3 completed solve, outerIter=1
[2] Bidomain phiE solve debug: proc=2 completed solve, outerIter=1
[5] Bidomain phiE solve debug: proc=5 completed solve, outerIter=1
[4] Bidomain phiE solve debug: proc=4 completed solve, outerIter=1
[1] Bidomain phiE solve debug: proc=1 completed solve, outerIter=1
[0] Bidomain phiE solve debug: proc=0 completed solve, outerIter=1
DICPCG:  Solving for Vm, Initial residual = 0.000505737, Final residual = 5.95414e-17, No Iterations 6
PIMPLE: iteration 2
[3] Bidomain phiE solve debug: proc=3 entering solve, refCell=-1 refValue=0 outerIter=2
[2] Bidomain phiE solve debug: proc=2 entering solve, refCell=-1 refValue=0 outerIter=2
[5] Bidomain phiE solve debug: proc=5 entering solve, refCell=-1 refValue=0 outerIter=2
[1] Bidomain phiE solve debug: proc=1 entering solve, refCell=-1 refValue=0 outerIter=2
[4] Bidomain phiE solve debug: proc=4 entering solve, refCell=2 refValue=0 outerIter=2
[0] Bidomain phiE solve debug: proc=0 entering solve, refCell=-1 refValue=0 outerIter=2
DICPCG:  Solving for phiE, Initial residual = 0.0004469, Final residual = 5.39431e-16, No Iterations 59
[0] Bidomain phiE solve debug: proc=0 completed solve, outerIter=2
[2] Bidomain phiE solve debug: proc=2 completed solve, outerIter=2
[3] Bidomain phiE solve debug: proc=3 completed solve, outerIter=2
[4] Bidomain phiE solve debug: proc=4 completed solve, outerIter=2
[5] Bidomain phiE solve debug: proc=5 completed solve, outerIter=2
[1] Bidomain phiE solve debug: proc=1 completed solve, outerIter=2
DICPCG:  Solving for Vm, Initial residual = 4.99214e-07, Final residual = 5.83605e-16, No Iterations 4
ExecutionTime = 0.02 s  ClockTime = 0 s

Time = 0.0470851

DEBUG cell=0 t=0.044843→0.0470851 step=0.00224215 V=-1.0052 u1=0.0455125 u2=0.953847 u3=0 Iion=1.53747
DEBUG cell=0 t=0.044843→0.0470851 step=0.0201793 V=-1.0052 u1=0.0466867 u2=0.951807 u3=0 Iion=1.53692
[3] Bidomain phiE reference debug: proc=3 point=(0.125 0.05 0.05) refCell=-1 ownsReference=0
[2] Bidomain phiE reference debug: proc=2 point=(0.125 0.05 0.05) refCell=-1 ownsReference=0
[4] Bidomain phiE reference debug: proc=4 point=(0.125 0.05 0.05) refCell=2 ownsReference=1
[5] Bidomain phiE reference debug: proc=5 point=(0.125 0.05 0.05) refCell=-1 ownsReference=0
[1] Bidomain phiE reference debug: proc=1 point=(0.125 0.05 0.05) refCell=-1 ownsReference=0
[0] Bidomain phiE reference debug: proc=0 point=(0.125 0.05 0.05) refCell=-1 ownsReference=0
Bidomain phiE reference summary: ownerCount=1 ownerProc=4 point=(0.125 0.05 0.05)
PIMPLE: iteration 1
[2] Bidomain phiE solve debug: proc=2 entering solve, refCell=-1 refValue=0 outerIter=1
[3] Bidomain phiE solve debug: proc=3 entering solve, refCell=-1 refValue=0 outerIter=1
[1] Bidomain phiE solve debug: proc=1 entering solve, refCell=-1 refValue=0 outerIter=1
[0] Bidomain phiE solve debug: proc=0 entering solve, refCell=-1 refValue=0 outerIter=1
[5] Bidomain phiE solve debug: proc=5 entering solve, refCell=-1 refValue=0 outerIter=1
[4] Bidomain phiE solve debug: proc=4 entering solve, refCell=2 refValue=0 outerIter=1
DICPCG:  Solving for phiE, Initial residual = 4.41106e-07, Final residual = 8.24687e-16, No Iterations 50
[0] Bidomain phiE solve debug: proc=0 completed solve, outerIter=1
[3] Bidomain phiE solve debug: proc=3 completed solve, outerIter=1
[2] Bidomain phiE solve debug: proc=2 completed solve, outerIter=1
[5] Bidomain phiE solve debug: proc=5 completed solve, outerIter=1
[1] Bidomain phiE solve debug: proc=1 completed solve, outerIter=1
[4] Bidomain phiE solve debug: proc=4 completed solve, outerIter=1
DICPCG:  Solving for Vm, Initial residual = 0.00050459, Final residual = 5.94066e-17, No Iterations 6
PIMPLE: iteration 2
[2] Bidomain phiE solve debug: proc=2 entering solve, refCell=-1 refValue=0 outerIter=2
[0] Bidomain phiE solve debug: proc=0 entering solve, refCell=-1 refValue=0 outerIter=2
[3] Bidomain phiE solve debug: proc=3 entering solve, refCell=-1 refValue=0 outerIter=2
[4] Bidomain phiE solve debug: proc=4 entering solve, refCell=2 refValue=0 outerIter=2
[5] Bidomain phiE solve debug: proc=5 entering solve, refCell=-1 refValue=0 outerIter=2
[1] Bidomain phiE solve debug: proc=1 entering solve, refCell=-1 refValue=0 outerIter=2
DICPCG:  Solving for phiE, Initial residual = 0.000445886, Final residual = 5.38173e-16, No Iterations 59
[0] Bidomain phiE solve debug: proc=0 completed solve, outerIter=2
[3] Bidomain phiE solve debug: proc=3 completed solve, outerIter=2
[2] Bidomain phiE solve debug: proc=2 completed solve, outerIter=2
[4] Bidomain phiE solve debug: proc=4 completed solve, outerIter=2
[1] Bidomain phiE solve debug: proc=1 completed solve, outerIter=2
[5] Bidomain phiE solve debug: proc=5 completed solve, outerIter=2
DICPCG:  Solving for Vm, Initial residual = 4.98082e-07, Final residual = 5.82303e-16, No Iterations 4
ExecutionTime = 0.03 s  ClockTime = 0 s

Time = 0.0493273

DEBUG cell=0 t=0.0470851→0.0493273 step=0.00224215 V=-1.00622 u1=0.0466867 u2=0.951807 u3=0 Iion=1.53692
DEBUG cell=0 t=0.0470851→0.0493273 step=0.0201793 V=-1.00622 u1=0.047862 u2=0.949777 u3=0 Iion=1.53637
[3] Bidomain phiE reference debug: proc=3 point=(0.125 0.05 0.05) refCell=-1 ownsReference=0
[2] Bidomain phiE reference debug: proc=2 point=(0.125 0.05 0.05) refCell=-1 ownsReference=0
[1] Bidomain phiE reference debug: proc=1 point=(0.125 0.05 0.05) refCell=-1 ownsReference=0
[5] Bidomain phiE reference debug: proc=5 point=(0.125 0.05 0.05) refCell=-1 ownsReference=0
[0] Bidomain phiE reference debug: proc=0 point=(0.125 0.05 0.05) refCell=-1 ownsReference=0
[4] Bidomain phiE reference debug: proc=4 point=(0.125 0.05 0.05) refCell=2 ownsReference=1
Bidomain phiE reference summary: ownerCount=1 ownerProc=4 point=(0.125 0.05 0.05)
PIMPLE: iteration 1
[2] Bidomain phiE solve debug: proc=2 entering solve, refCell=-1 refValue=0 outerIter=1
[5] Bidomain phiE solve debug: proc=5 entering solve, refCell=-1 refValue=0 outerIter=1
[0] Bidomain phiE solve debug: proc=0 entering solve, refCell=-1 refValue=0 outerIter=1
[3] Bidomain phiE solve debug: proc=3 entering solve, refCell=-1 refValue=0 outerIter=1
[1] Bidomain phiE solve debug: proc=1 entering solve, refCell=-1 refValue=0 outerIter=1
[4] Bidomain phiE solve debug: proc=4 entering solve, refCell=2 refValue=0 outerIter=1
DICPCG:  Solving for phiE, Initial residual = 4.40106e-07, Final residual = 8.20675e-16, No Iterations 50
[0] Bidomain phiE solve debug: proc=0 completed solve, outerIter=1
[2] Bidomain phiE solve debug: proc=2 completed solve, outerIter=1
[3] Bidomain phiE solve debug: proc=3 completed solve, outerIter=1
[1] Bidomain phiE solve debug: proc=1 completed solve, outerIter=1
[5] Bidomain phiE solve debug: proc=5 completed solve, outerIter=1
[4] Bidomain phiE solve debug: proc=4 completed solve, outerIter=1
DICPCG:  Solving for Vm, Initial residual = 0.000503448, Final residual = 5.92723e-17, No Iterations 6
PIMPLE: iteration 2
[0] Bidomain phiE solve debug: proc=0 entering solve, refCell=-1 refValue=0 outerIter=2
[2] Bidomain phiE solve debug: proc=2 entering solve, refCell=-1 refValue=0 outerIter=2
[1] Bidomain phiE solve debug: proc=1 entering solve, refCell=-1 refValue=0 outerIter=2
[3] Bidomain phiE solve debug: proc=3 entering solve, refCell=-1 refValue=0 outerIter=2
[4] Bidomain phiE solve debug: proc=4 entering solve, refCell=2 refValue=0 outerIter=2
[5] Bidomain phiE solve debug: proc=5 entering solve, refCell=-1 refValue=0 outerIter=2
DICPCG:  Solving for phiE, Initial residual = 0.000444877, Final residual = 5.3692e-16, No Iterations 59
[0] Bidomain phiE solve debug: proc=0 completed solve, outerIter=2
[2] Bidomain phiE solve debug: proc=2 completed solve, outerIter=2
[3] Bidomain phiE solve debug: proc=3 completed solve, outerIter=2
[1] Bidomain phiE solve debug: proc=1 completed solve, outerIter=2
[5] Bidomain phiE solve debug: proc=5 completed solve, outerIter=2
[4] Bidomain phiE solve debug: proc=4 completed solve, outerIter=2
DICPCG:  Solving for Vm, Initial residual = 4.96955e-07, Final residual = 5.81005e-16, No Iterations 4
ExecutionTime = 0.03 s  ClockTime = 0 s

Time = 0.0515694

DEBUG cell=0 t=0.0493273→0.0515694 step=0.00224215 V=-1.00723 u1=0.047862 u2=0.949777 u3=0 Iion=1.53637
DEBUG cell=0 t=0.0493273→0.0515694 step=0.0201793 V=-1.00723 u1=0.0490383 u2=0.947756 u3=0 Iion=1.53583
[3] Bidomain phiE reference debug: proc=3 point=(0.125 0.05 0.05) refCell=-1 ownsReference=0
[2] Bidomain phiE reference debug: proc=2 point=(0.125 0.05 0.05) refCell=-1 ownsReference=0
[5] Bidomain phiE reference debug: proc=5 point=(0.125 0.05 0.05) refCell=-1 ownsReference=0
[0] Bidomain phiE reference debug: proc=0 point=(0.125 0.05 0.05) refCell=-1 ownsReference=0
Bidomain phiE reference summary: ownerCount=1 ownerProc=4 point=(0.125 0.05 0.05)
[1] Bidomain phiE reference debug: proc=1 point=(0.125 0.05 0.05) refCell=-1 ownsReference=0
[4] Bidomain phiE reference debug: proc=4 point=(0.125 0.05 0.05) refCell=2 ownsReference=1
PIMPLE: iteration 1
[0] Bidomain phiE solve debug: proc=0 entering solve, refCell=-1 refValue=0 outerIter=1
[2] Bidomain phiE solve debug: proc=2 entering solve, refCell=-1 refValue=0 outerIter=1
[3] Bidomain phiE solve debug: proc=3 entering solve, refCell=-1 refValue=0 outerIter=1
[1] Bidomain phiE solve debug: proc=1 entering solve, refCell=-1 refValue=0 outerIter=1
[4] Bidomain phiE solve debug: proc=4 entering solve, refCell=2 refValue=0 outerIter=1
[5] Bidomain phiE solve debug: proc=5 entering solve, refCell=-1 refValue=0 outerIter=1
DICPCG:  Solving for phiE, Initial residual = 4.3911e-07, Final residual = 8.16722e-16, No Iterations 50
[0] Bidomain phiE solve debug: proc=0 completed solve, outerIter=1
[3] Bidomain phiE solve debug: proc=3 completed solve, outerIter=1
[2] Bidomain phiE solve debug: proc=2 completed solve, outerIter=1
[5] Bidomain phiE solve debug: proc=5 completed solve, outerIter=1
[1] Bidomain phiE solve debug: proc=1 completed solve, outerIter=1
[4] Bidomain phiE solve debug: proc=4 completed solve, outerIter=1
DICPCG:  Solving for Vm, Initial residual = 0.000502311, Final residual = 5.91385e-17, No Iterations 6
PIMPLE: iteration 2
[0] Bidomain phiE solve debug: proc=0 entering solve, refCell=-1 refValue=0 outerIter=2
[2] Bidomain phiE solve debug: proc=2 entering solve, refCell=-1 refValue=0 outerIter=2
[3] Bidomain phiE solve debug: proc=3 entering solve, refCell=-1 refValue=0 outerIter=2
[1] Bidomain phiE solve debug: proc=1 entering solve, refCell=-1 refValue=0 outerIter=2
[4] Bidomain phiE solve debug: proc=4 entering solve, refCell=2 refValue=0 outerIter=2
[5] Bidomain phiE solve debug: proc=5 entering solve, refCell=-1 refValue=0 outerIter=2
DICPCG:  Solving for phiE, Initial residual = 0.000443872, Final residual = 5.35673e-16, No Iterations 59
[0] Bidomain phiE solve debug: proc=0 completed solve, outerIter=2
[3] Bidomain phiE solve debug: proc=3 completed solve, outerIter=2
[2] Bidomain phiE solve debug: proc=2 completed solve, outerIter=2
[1] Bidomain phiE solve debug: proc=1 completed solve, outerIter=2
[5] Bidomain phiE solve debug: proc=5 completed solve, outerIter=2
[4] Bidomain phiE solve debug: proc=4 completed solve, outerIter=2
DICPCG:  Solving for Vm, Initial residual = 4.95833e-07, Final residual = 5.79713e-16, No Iterations 4
ExecutionTime = 0.03 s  ClockTime = 0 s

Time = 0.0538116

DEBUG cell=0 t=0.0515694→0.0538116 step=0.00224215 V=-1.00824 u1=0.0490383 u2=0.947756 u3=0 Iion=1.53583
DEBUG cell=0 t=0.0515694→0.0538116 step=0.0201793 V=-1.00824 u1=0.0502155 u2=0.945743 u3=0 Iion=1.53528
[3] Bidomain phiE reference debug: proc=3 point=(0.125 0.05 0.05) refCell=-1 ownsReference=0
[2] Bidomain phiE reference debug: proc=2 point=(0.125 0.05 0.05) refCell=-1 ownsReference=0
[5] Bidomain phiE reference debug: proc=5 point=(0.125 0.05 0.05) refCell=-1 ownsReference=0
[4] Bidomain phiE reference debug: proc=4 point=(0.125 0.05 0.05) refCell=2 ownsReference=1
[0] Bidomain phiE reference debug: proc=0 point=(0.125 0.05 0.05) refCell=-1 ownsReference=0
Bidomain phiE reference summary: ownerCount=1 ownerProc=4 point=(0.125 0.05 0.05)
PIMPLE: iteration 1
[1] Bidomain phiE reference debug: proc=1 point=(0.125 0.05 0.05) refCell=-1 ownsReference=0
[3] Bidomain phiE solve debug: proc=3 entering solve, refCell=-1 refValue=0 outerIter=1
[4] Bidomain phiE solve debug: proc=4 entering solve, refCell=2 refValue=0 outerIter=1
[2] Bidomain phiE solve debug: proc=2 entering solve, refCell=-1 refValue=0 outerIter=1
[0] Bidomain phiE solve debug: proc=0 entering solve, refCell=-1 refValue=0 outerIter=1
[1] Bidomain phiE solve debug: proc=1 entering solve, refCell=-1 refValue=0 outerIter=1
[5] Bidomain phiE solve debug: proc=5 entering solve, refCell=-1 refValue=0 outerIter=1
DICPCG:  Solving for phiE, Initial residual = 4.38119e-07, Final residual = 8.12825e-16, No Iterations 50
[0] Bidomain phiE solve debug: proc=0 completed solve, outerIter=1
[3] Bidomain phiE solve debug: proc=3 completed solve, outerIter=1
[2] Bidomain phiE solve debug: proc=2 completed solve, outerIter=1
[5] Bidomain phiE solve debug: proc=5 completed solve, outerIter=1
[1] Bidomain phiE solve debug: proc=1 completed solve, outerIter=1
[4] Bidomain phiE solve debug: proc=4 completed solve, outerIter=1
DICPCG:  Solving for Vm, Initial residual = 0.000501179, Final residual = 5.90054e-17, No Iterations 6
PIMPLE: iteration 2
[0] Bidomain phiE solve debug: proc=0 entering solve, refCell=-1 refValue=0 outerIter=2
[5] Bidomain phiE solve debug: proc=5 entering solve, refCell=-1 refValue=0 outerIter=2
[2] Bidomain phiE solve debug: proc=2 entering solve, refCell=-1 refValue=0 outerIter=2
[4] Bidomain phiE solve debug: proc=4 entering solve, refCell=2 refValue=0 outerIter=2
[3] Bidomain phiE solve debug: proc=3 entering solve, refCell=-1 refValue=0 outerIter=2
[1] Bidomain phiE solve debug: proc=1 entering solve, refCell=-1 refValue=0 outerIter=2
DICPCG:  Solving for phiE, Initial residual = 0.000442871, Final residual = 5.34433e-16, No Iterations 59
[0] Bidomain phiE solve debug: proc=0 completed solve, outerIter=2
[2] Bidomain phiE solve debug: proc=2 completed solve, outerIter=2
[3] Bidomain phiE solve debug: proc=3 completed solve, outerIter=2
[1] Bidomain phiE solve debug: proc=1 completed solve, outerIter=2
[5] Bidomain phiE solve debug: proc=5 completed solve, outerIter=2
[4] Bidomain phiE solve debug: proc=4 completed solve, outerIter=2
DICPCG:  Solving for Vm, Initial residual = 4.94716e-07, Final residual = 5.78427e-16, No Iterations 4
ExecutionTime = 0.03 s  ClockTime = 0 s

Time = 0.0560537

DEBUG cell=0 t=0.0538116→0.0560537 step=0.00224215 V=-1.00925 u1=0.0502155 u2=0.945743 u3=0 Iion=1.53528
DEBUG cell=0 t=0.0538116→0.0560537 step=0.0201793 V=-1.00925 u1=0.0513938 u2=0.943739 u3=0 Iion=1.53474
[...]
DEBUG cell=0 t=0.186098→0.188341 step=0.0201793 V=-1.06662 u1=0.122565 u2=0.839016 u3=0 Iion=1.50729
[2] Bidomain phiE reference debug: proc=2 point=(0.125 0.05 0.05) refCell=-1 ownsReference=0
[3] Bidomain phiE reference debug: proc=3 point=(0.125 0.05 0.05) refCell=-1 ownsReference=0
[4] Bidomain phiE reference debug: proc=4 point=(0.125 0.05 0.05) refCell=2 ownsReference=1
[5] Bidomain phiE reference debug: proc=5 point=(0.125 0.05 0.05) refCell=-1 ownsReference=0
[1] Bidomain phiE reference debug: proc=1 point=(0.125 0.05 0.05) refCell=-1 ownsReference=0
[0] Bidomain phiE reference debug: proc=0 point=(0.125 0.05 0.05) refCell=-1 ownsReference=0
Bidomain phiE reference summary: ownerCount=1 ownerProc=4 point=(0.125 0.05 0.05)
PIMPLE: iteration 1
[2] Bidomain phiE solve debug: proc=2 entering solve, refCell=-1 refValue=0 outerIter=1
[3] Bidomain phiE solve debug: proc=3 entering solve, refCell=-1 refValue=0 outerIter=1
[5] Bidomain phiE solve debug: proc=5 entering solve, refCell=-1 refValue=0 outerIter=1
[0] Bidomain phiE solve debug: proc=0 entering solve, refCell=-1 refValue=0 outerIter=1
[4] Bidomain phiE solve debug: proc=4 entering solve, refCell=2 refValue=0 outerIter=1
[1] Bidomain phiE solve debug: proc=1 entering solve, refCell=-1 refValue=0 outerIter=1
DICPCG:  Solving for phiE, Initial residual = 3.85478e-07, Final residual = 6.7061e-16, No Iterations 50
[0] Bidomain phiE solve debug: proc=0 completed solve, outerIter=1
[3] Bidomain phiE solve debug: proc=3 completed solve, outerIter=1
[2] Bidomain phiE solve debug: proc=2 completed solve, outerIter=1
[5] Bidomain phiE solve debug: proc=5 completed solve, outerIter=1
[4] Bidomain phiE solve debug: proc=4 completed solve, outerIter=1
[1] Bidomain phiE solve debug: proc=1 completed solve, outerIter=1
DICPCG:  Solving for Vm, Initial residual = 0.000441057, Final residual = 5.19369e-17, No Iterations 6
PIMPLE: iteration 2
[2] Bidomain phiE solve debug: proc=2 entering solve, refCell=-1 refValue=0 outerIter=2
[3] Bidomain phiE solve debug: proc=3 entering solve, refCell=-1 refValue=0 outerIter=2
[1] Bidomain phiE solve debug: proc=1 entering solve, refCell=-1 refValue=0 outerIter=2
[4] Bidomain phiE solve debug: proc=4 entering solve, refCell=2 refValue=0 outerIter=2
[0] Bidomain phiE solve debug: proc=0 entering solve, refCell=-1 refValue=0 outerIter=2
[5] Bidomain phiE solve debug: proc=5 entering solve, refCell=-1 refValue=0 outerIter=2
DICPCG:  Solving for phiE, Initial residual = 0.000389734, Final residual = 4.6879e-16, No Iterations 59
[0] Bidomain phiE solve debug: proc=0 completed solve, outerIter=2
[3] Bidomain phiE solve debug: proc=3 completed solve, outerIter=2
[2] Bidomain phiE solve debug: proc=2 completed solve, outerIter=2
[1] Bidomain phiE solve debug: proc=1 completed solve, outerIter=2
[5] Bidomain phiE solve debug: proc=5 completed solve, outerIter=2
[4] Bidomain phiE solve debug: proc=4 completed solve, outerIter=2
DICPCG:  Solving for Vm, Initial residual = 4.35394e-07, Final residual = 5.09951e-16, No Iterations 4
ExecutionTime = 0.07 s  ClockTime = 0 s

Time = 0.190583

DEBUG cell=0 t=0.188341→0.190583 step=0.00224215 V=-1.06756 u1=0.122565 u2=0.839016 u3=0 Iion=1.50729
DEBUG cell=0 t=0.188341→0.190583 step=0.0201793 V=-1.06756 u1=0.123797 u2=0.837444 u3=0 Iion=1.50689
[2] Bidomain phiE reference debug: proc=2 point=(0.125 0.05 0.05) refCell=-1 ownsReference=0
[3] Bidomain phiE reference debug: proc=3 point=(0.125 0.05 0.05) refCell=-1 ownsReference=0
[4] Bidomain phiE reference debug: proc=4 point=(0.125 0.05 0.05) refCell=2 ownsReference=1
[5] Bidomain phiE reference debug: proc=5 point=(0.125 0.05 0.05) refCell=-1 ownsReference=0
[1] Bidomain phiE reference debug: proc=1 point=(0.125 0.05 0.05) refCell=-1 ownsReference=0
[0] Bidomain phiE reference debug: proc=0 point=(0.125 0.05 0.05) refCell=-1 ownsReference=0
Bidomain phiE reference summary: ownerCount=1 ownerProc=4 point=(0.125 0.05 0.05)
PIMPLE: iteration 1
[0] Bidomain phiE solve debug: proc=0 entering solve, refCell=-1 refValue=0 outerIter=1
[2] Bidomain phiE solve debug: proc=2 entering solve, refCell=-1 refValue=0 outerIter=1
[3] Bidomain phiE solve debug: proc=3 entering solve, refCell=-1 refValue=0 outerIter=1
[5] Bidomain phiE solve debug: proc=5 entering solve, refCell=-1 refValue=0 outerIter=1
[1] Bidomain phiE solve debug: proc=1 entering solve, refCell=-1 refValue=0 outerIter=1
[4] Bidomain phiE solve debug: proc=4 entering solve, refCell=2 refValue=0 outerIter=1
DICPCG:  Solving for phiE, Initial residual = 3.84702e-07, Final residual = 6.69345e-16, No Iterations 50
[0] Bidomain phiE solve debug: proc=0 completed solve, outerIter=1
[2] Bidomain phiE solve debug: proc=2 completed solve, outerIter=1
[3] Bidomain phiE solve debug: proc=3 completed solve, outerIter=1
[1] Bidomain phiE solve debug: proc=1 completed solve, outerIter=1
[5] Bidomain phiE solve debug: proc=5 completed solve, outerIter=1
[4] Bidomain phiE solve debug: proc=4 completed solve, outerIter=1
DICPCG:  Solving for Vm, Initial residual = 0.00044017, Final residual = 5.18327e-17, No Iterations 6
PIMPLE: iteration 2
[0] Bidomain phiE solve debug: proc=0 entering solve, refCell=-1 refValue=0 outerIter=2
[1] Bidomain phiE solve debug: proc=1 entering solve, refCell=-1 refValue=0 outerIter=2
[4] Bidomain phiE solve debug: proc=4 entering solve, refCell=2 refValue=0 outerIter=2
[2] Bidomain phiE solve debug: proc=2 entering solve, refCell=-1 refValue=0 outerIter=2
[5] Bidomain phiE solve debug: proc=5 entering solve, refCell=-1 refValue=0 outerIter=2
[3] Bidomain phiE solve debug: proc=3 entering solve, refCell=-1 refValue=0 outerIter=2
DICPCG:  Solving for phiE, Initial residual = 0.00038895, Final residual = 4.67827e-16, No Iterations 59
[0] Bidomain phiE solve debug: proc=0 completed solve, outerIter=2
[2] Bidomain phiE solve debug: proc=2 completed solve, outerIter=2
[1] Bidomain phiE solve debug: proc=1 completed solve, outerIter=2
[4] Bidomain phiE solve debug: proc=4 completed solve, outerIter=2
[3] Bidomain phiE solve debug: proc=3 completed solve, outerIter=2
[5] Bidomain phiE solve debug: proc=5 completed solve, outerIter=2
DICPCG:  Solving for Vm, Initial residual = 4.34519e-07, Final residual = 5.08938e-16, No Iterations 4
ExecutionTime = 0.07 s  ClockTime = 0 s

Time = 0.192825

DEBUG cell=0 t=0.190583→0.192825 step=0.00224215 V=-1.06849 u1=0.123797 u2=0.837444 u3=0 Iion=1.50689
DEBUG cell=0 t=0.190583→0.192825 step=0.0201793 V=-1.06849 u1=0.125031 u2=0.835877 u3=0 Iion=1.5065
[2] Bidomain phiE reference debug: proc=2 point=(0.125 0.05 0.05) refCell=-1 ownsReference=0
[3] Bidomain phiE reference debug: proc=3 point=(0.125 0.05 0.05) refCell=-1 ownsReference=0
[4] Bidomain phiE reference debug: proc=4 point=(0.125 0.05 0.05) refCell=2 ownsReference=1
[1] Bidomain phiE reference debug: proc=1 point=(0.125 0.05 0.05) refCell=-1 ownsReference=0
[5] Bidomain phiE reference debug: proc=5 point=(0.125 0.05 0.05) refCell=-1 ownsReference=0
[0] Bidomain phiE reference debug: proc=0 point=(0.125 0.05 0.05) refCell=-1 ownsReference=0
Bidomain phiE reference summary: ownerCount=1 ownerProc=4 point=(0.125 0.05 0.05)
PIMPLE: iteration 1
[1] Bidomain phiE solve debug: proc=1 entering solve, refCell=-1 refValue=0 outerIter=1
[4] Bidomain phiE solve debug: proc=4 entering solve, refCell=2 refValue=0 outerIter=1
[2] Bidomain phiE solve debug: proc=2 entering solve, refCell=-1 refValue=0 outerIter=1
[3] Bidomain phiE solve debug: proc=3 entering solve, refCell=-1 refValue=0 outerIter=1
[0] Bidomain phiE solve debug: proc=0 entering solve, refCell=-1 refValue=0 outerIter=1
[5] Bidomain phiE solve debug: proc=5 entering solve, refCell=-1 refValue=0 outerIter=1
DICPCG:  Solving for phiE, Initial residual = 3.83928e-07, Final residual = 6.68103e-16, No Iterations 50
[0] Bidomain phiE solve debug: proc=0 completed solve, outerIter=1
[1] Bidomain phiE solve debug: proc=1 completed solve, outerIter=1
[2] Bidomain phiE solve debug: proc=2 completed solve, outerIter=1
[4] Bidomain phiE solve debug: proc=4 completed solve, outerIter=1
[3] Bidomain phiE solve debug: proc=3 completed solve, outerIter=1
[5] Bidomain phiE solve debug: proc=5 completed solve, outerIter=1
DICPCG:  Solving for Vm, Initial residual = 0.000439287, Final residual = 5.17288e-17, No Iterations 6
PIMPLE: iteration 2
[1] Bidomain phiE solve debug: proc=1 entering solve, refCell=-1 refValue=0 outerIter=2
[2] Bidomain phiE solve debug: proc=2 entering solve, refCell=-1 refValue=0 outerIter=2
[0] Bidomain phiE solve debug: proc=0 entering solve, refCell=-1 refValue=0 outerIter=2
[3] Bidomain phiE solve debug: proc=3 entering solve, refCell=-1 refValue=0 outerIter=2
[4] Bidomain phiE solve debug: proc=4 entering solve, refCell=2 refValue=0 outerIter=2
[5] Bidomain phiE solve debug: proc=5 entering solve, refCell=-1 refValue=0 outerIter=2
DICPCG:  Solving for phiE, Initial residual = 0.000388169, Final residual = 4.6687e-16, No Iterations 59
[2] Bidomain phiE solve debug: proc=2 completed solve, outerIter=2
[3] Bidomain phiE solve debug: proc=3 completed solve, outerIter=2
[1] Bidomain phiE solve debug: proc=1 completed solve, outerIter=2
[4] Bidomain phiE solve debug: proc=4 completed solve, outerIter=2
[0] Bidomain phiE solve debug: proc=0 completed solve, outerIter=2
[5] Bidomain phiE solve debug: proc=5 completed solve, outerIter=2
DICPCG:  Solving for Vm, Initial residual = 4.33647e-07, Final residual = 5.0793e-16, No Iterations 4
ExecutionTime = 0.08 s  ClockTime = 0 s

Time = 0.195067

DEBUG cell=0 t=0.192825→0.195067 step=0.00224215 V=-1.06943 u1=0.125031 u2=0.835877 u3=0 Iion=1.5065
DEBUG cell=0 t=0.192825→0.195067 step=0.0201793 V=-1.06943 u1=0.126265 u2=0.834317 u3=0 Iion=1.5061
[2] Bidomain phiE reference debug: proc=2 point=(0.125 0.05 0.05) refCell=-1 ownsReference=0
[3] Bidomain phiE reference debug: proc=3 point=(0.125 0.05 0.05) refCell=-1 ownsReference=0
[4] Bidomain phiE reference debug: proc=4 point=(0.125 0.05 0.05) refCell=2 ownsReference=1
[1] Bidomain phiE reference debug: proc=1 point=(0.125 0.05 0.05) refCell=-1 ownsReference=0
[0] Bidomain phiE reference debug: proc=0 point=(0.125 0.05 0.05) refCell=-1 ownsReference=0
Bidomain phiE reference summary: ownerCount=1 ownerProc=4 point=(0.125 0.05 0.05)
PIMPLE: iteration 1
[5] Bidomain phiE reference debug: proc=5 point=(0.125 0.05 0.05) refCell=-1 ownsReference=0
[3] Bidomain phiE solve debug: proc=3 entering solve, refCell=-1 refValue=0 outerIter=1
[4] Bidomain phiE solve debug: proc=4 entering solve, refCell=2 refValue=0 outerIter=1
[1] Bidomain phiE solve debug: proc=1 entering solve, refCell=-1 refValue=0 outerIter=1
[2] Bidomain phiE solve debug: proc=2 entering solve, refCell=-1 refValue=0 outerIter=1
[0] Bidomain phiE solve debug: proc=0 entering solve, refCell=-1 refValue=0 outerIter=1
[5] Bidomain phiE solve debug: proc=5 entering solve, refCell=-1 refValue=0 outerIter=1
DICPCG:  Solving for phiE, Initial residual = 3.83157e-07, Final residual = 6.66879e-16, No Iterations 50
[0] Bidomain phiE solve debug: proc=0 completed solve, outerIter=1
[2] Bidomain phiE solve debug: proc=2 completed solve, outerIter=1
[3] Bidomain phiE solve debug: proc=3 completed solve, outerIter=1
[1] Bidomain phiE solve debug: proc=1 completed solve, outerIter=1
[4] Bidomain phiE solve debug: proc=4 completed solve, outerIter=1
[5] Bidomain phiE solve debug: proc=5 completed solve, outerIter=1
DICPCG:  Solving for Vm, Initial residual = 0.000438406, Final residual = 5.16253e-17, No Iterations 6
PIMPLE: iteration 2
[1] Bidomain phiE solve debug: proc=1 entering solve, refCell=-1 refValue=0 outerIter=2
[0] Bidomain phiE solve debug: proc=0 entering solve, refCell=-1 refValue=0 outerIter=2
[4] Bidomain phiE solve debug: proc=4 entering solve, refCell=2 refValue=0 outerIter=2
[2] Bidomain phiE solve debug: proc=2 entering solve, refCell=-1 refValue=0 outerIter=2
[3] Bidomain phiE solve debug: proc=3 entering solve, refCell=-1 refValue=0 outerIter=2
[5] Bidomain phiE solve debug: proc=5 entering solve, refCell=-1 refValue=0 outerIter=2
DICPCG:  Solving for phiE, Initial residual = 0.000387391, Final residual = 4.65916e-16, No Iterations 59
[0] Bidomain phiE solve debug: proc=0 completed solve, outerIter=2
[2] Bidomain phiE solve debug: proc=2 completed solve, outerIter=2
[3] Bidomain phiE solve debug: proc=3 completed solve, outerIter=2
[1] Bidomain phiE solve debug: proc=1 completed solve, outerIter=2
[4] Bidomain phiE solve debug: proc=4 completed solve, outerIter=2
[5] Bidomain phiE solve debug: proc=5 completed solve, outerIter=2
DICPCG:  Solving for Vm, Initial residual = 4.32778e-07, Final residual = 5.06924e-16, No Iterations 4
ExecutionTime = 0.08 s  ClockTime = 0 s

Time = 0.197309

DEBUG cell=0 t=0.195067→0.197309 step=0.00224215 V=-1.07036 u1=0.126265 u2=0.834317 u3=0 Iion=1.5061
DEBUG cell=0 t=0.195067→0.197309 step=0.0201793 V=-1.07036 u1=0.127499 u2=0.832762 u3=0 Iion=1.50571
[2] Bidomain phiE reference debug: proc=2 point=(0.125 0.05 0.05) refCell=-1 ownsReference=0
[3] Bidomain phiE reference debug: proc=3 point=(0.125 0.05 0.05) refCell=-1 ownsReference=0
[4] Bidomain phiE reference debug: proc=4 point=(0.125 0.05 0.05) refCell=2 ownsReference=1
[1] Bidomain phiE reference debug: proc=1 point=(0.125 0.05 0.05) refCell=-1 ownsReference=0
[0] Bidomain phiE reference debug: proc=0 point=(0.125 0.05 0.05) refCell=-1 ownsReference=0
Bidomain phiE reference summary: ownerCount=1 ownerProc=4 point=(0.125 0.05 0.05)
PIMPLE: iteration 1
[5] Bidomain phiE reference debug: proc=5 point=(0.125 0.05 0.05) refCell=-1 ownsReference=0
[1] Bidomain phiE solve debug: proc=1 entering solve, refCell=-1 refValue=0 outerIter=1
[2] Bidomain phiE solve debug: proc=2 entering solve, refCell=-1 refValue=0 outerIter=1
[0] Bidomain phiE solve debug: proc=0 entering solve, refCell=-1 refValue=0 outerIter=1
[3] Bidomain phiE solve debug: proc=3 entering solve, refCell=-1 refValue=0 outerIter=1
[4] Bidomain phiE solve debug: proc=4 entering solve, refCell=2 refValue=0 outerIter=1
[5] Bidomain phiE solve debug: proc=5 entering solve, refCell=-1 refValue=0 outerIter=1
DICPCG:  Solving for phiE, Initial residual = 3.8239e-07, Final residual = 6.65673e-16, No Iterations 50
[0] Bidomain phiE solve debug: proc=0 completed solve, outerIter=1
[2] Bidomain phiE solve debug: proc=2 completed solve, outerIter=1
[3] Bidomain phiE solve debug: proc=3 completed solve, outerIter=1
[1] Bidomain phiE solve debug: proc=1 completed solve, outerIter=1
[4] Bidomain phiE solve debug: proc=4 completed solve, outerIter=1
[5] Bidomain phiE solve debug: proc=5 completed solve, outerIter=1
DICPCG:  Solving for Vm, Initial residual = 0.000437529, Final residual = 5.15222e-17, No Iterations 6
PIMPLE: iteration 2
[2] Bidomain phiE solve debug: proc=2 entering solve, refCell=-1 refValue=0 outerIter=2
[4] Bidomain phiE solve debug: proc=4 entering solve, refCell=2 refValue=0 outerIter=2
[1] Bidomain phiE solve debug: proc=1 entering solve, refCell=-1 refValue=0 outerIter=2
[3] Bidomain phiE solve debug: proc=3 entering solve, refCell=-1 refValue=0 outerIter=2
[0] Bidomain phiE solve debug: proc=0 entering solve, refCell=-1 refValue=0 outerIter=2
[5] Bidomain phiE solve debug: proc=5 entering solve, refCell=-1 refValue=0 outerIter=2
DICPCG:  Solving for phiE, Initial residual = 0.000386615, Final residual = 4.64966e-16, No Iterations 59
[0] Bidomain phiE solve debug: proc=0 completed solve, outerIter=2
[2] Bidomain phiE solve debug: proc=2 completed solve, outerIter=2
[3] Bidomain phiE solve debug: proc=3 completed solve, outerIter=2
[4] Bidomain phiE solve debug: proc=4 completed solve, outerIter=2
[1] Bidomain phiE solve debug: proc=1 completed solve, outerIter=2
[5] Bidomain phiE solve debug: proc=5 completed solve, outerIter=2
DICPCG:  Solving for Vm, Initial residual = 4.31913e-07, Final residual = 5.05923e-16, No Iterations 4
ExecutionTime = 0.08 s  ClockTime = 0 s

Time = 0.199551

DEBUG cell=0 t=0.197309→0.199551 step=0.00224215 V=-1.07129 u1=0.127499 u2=0.832762 u3=0 Iion=1.50571
DEBUG cell=0 t=0.197309→0.199551 step=0.0201793 V=-1.07129 u1=0.128735 u2=0.831213 u3=0 Iion=1.50532
[2] Bidomain phiE reference debug: proc=2 point=(0.125 0.05 0.05) refCell=-1 ownsReference=0
[3] Bidomain phiE reference debug: proc=3 point=(0.125 0.05 0.05) refCell=-1 ownsReference=0
[4] Bidomain phiE reference debug: proc=4 point=(0.125 0.05 0.05) refCell=2 ownsReference=1
[1] Bidomain phiE reference debug: proc=1 point=(0.125 0.05 0.05) refCell=-1 ownsReference=0
[0] Bidomain phiE reference debug: proc=0 point=(0.125 0.05 0.05) refCell=-1 ownsReference=0
Bidomain phiE reference summary: ownerCount=1 ownerProc=4 point=(0.125 0.05 0.05)
PIMPLE: iteration 1
[5] Bidomain phiE reference debug: proc=5 point=(0.125 0.05 0.05) refCell=-1 ownsReference=0
[4] Bidomain phiE solve debug: proc=4 entering solve, refCell=2 refValue=0 outerIter=1
[2] Bidomain phiE solve debug: proc=2 entering solve, refCell=-1 refValue=0 outerIter=1
[3] Bidomain phiE solve debug: proc=3 entering solve, refCell=-1 refValue=0 outerIter=1
[1] Bidomain phiE solve debug: proc=1 entering solve, refCell=-1 refValue=0 outerIter=1
[0] Bidomain phiE solve debug: proc=0 entering solve, refCell=-1 refValue=0 outerIter=1
[5] Bidomain phiE solve debug: proc=5 entering solve, refCell=-1 refValue=0 outerIter=1
DICPCG:  Solving for phiE, Initial residual = 3.81625e-07, Final residual = 6.64485e-16, No Iterations 50
[0] Bidomain phiE solve debug: proc=0 completed solve, outerIter=1
[2] Bidomain phiE solve debug: proc=2 completed solve, outerIter=1
[3] Bidomain phiE solve debug: proc=3 completed solve, outerIter=1
[1] Bidomain phiE solve debug: proc=1 completed solve, outerIter=1
[4] Bidomain phiE solve debug: proc=4 completed solve, outerIter=1
[5] Bidomain phiE solve debug: proc=5 completed solve, outerIter=1
DICPCG:  Solving for Vm, Initial residual = 0.000436656, Final residual = 5.14195e-17, No Iterations 6
PIMPLE: iteration 2
[2] Bidomain phiE solve debug: proc=2 entering solve, refCell=-1 refValue=0 outerIter=2
[5] Bidomain phiE solve debug: proc=5 entering solve, refCell=-1 refValue=0 outerIter=2
[4] Bidomain phiE solve debug: proc=4 entering solve, refCell=2 refValue=0 outerIter=2
[3] Bidomain phiE solve debug: proc=3 entering solve, refCell=-1 refValue=0 outerIter=2
[1] Bidomain phiE solve debug: proc=1 entering solve, refCell=-1 refValue=0 outerIter=2
[0] Bidomain phiE solve debug: proc=0 entering solve, refCell=-1 refValue=0 outerIter=2
DICPCG:  Solving for phiE, Initial residual = 0.000385843, Final residual = 4.6402e-16, No Iterations 59
[0] Bidomain phiE solve debug: proc=0 completed solve, outerIter=2
[2] Bidomain phiE solve debug: proc=2 completed solve, outerIter=2
[3] Bidomain phiE solve debug: proc=3 completed solve, outerIter=2
[1] Bidomain phiE solve debug: proc=1 completed solve, outerIter=2
[4] Bidomain phiE solve debug: proc=4 completed solve, outerIter=2
[5] Bidomain phiE solve debug: proc=5 completed solve, outerIter=2
DICPCG:  Solving for Vm, Initial residual = 4.31051e-07, Final residual = 5.04925e-16, No Iterations 4

Bidomain manufactured-solution error summary (t = 0.199551):
-------------------------------------------------
Field     L1-error       L2-error       Linf-error
Vm        0.00243605   0.00299182   0.00619738
phiE      0.0105634   0.0127871   0.0276978
phiI      0.00883406   0.0106065   0.022074
u1        0.000386155   0.000483255   0.00120442
u2        0.000147139   0.000185352   0.000429895
-------------------------------------------------
Bidomain manufactured PDE residuals evaluated on exact fields:
-------------------------------------------------
Equation  L1-residual    L2-residual    Linf-residual
Vm        0.00543747   0.0066738   0.0131426
phiE      1.99466e-10   2.44819e-10   4.82143e-10
-------------------------------------------------
ExecutionTime = 0.09 s  ClockTime = 0 s


End

Finalising parallel run
