/*---------------------------------------------------------------------------*\
| =========                 |                                                 |
| \\      /  F ield         | OpenFOAM: The Open Source CFD Toolbox           |
|  \\    /   O peration     | Version:  2412                                  |
|   \\  /    A nd           | Website:  www.openfoam.com                      |
|    \\/     M anipulation  |                                                 |
\*---------------------------------------------------------------------------*/
Build  : _8dbc61e11c-20241220 OPENFOAM=2412 version=v2412
Arch   : "LSB;label=32;scalar=64"
Exec   : cardiacFoam -parallel
Date   : Mar 19 2026
Time   : 12:42:21
Host   : macbook
PID    : 75647
I/O    : uncollated
Case   : /Users/simaocastro/cardiacFoamv2/tutorials/manufacturedFDA
nProcs : 6
Hosts  :
(
    (macbook 6)
)
Pstream initialized with:
    floatTransfer      : false
    maxCommsSize       : 0
    nProcsSimpleSum    : 0
    nonBlockingExchange: 0 (tuning: 0)
    exchange algorithm : 0
    commsType          : nonBlocking
    polling iterations : 0
trapFpe: Floating point exception trapping enabled (FOAM_SIGFPE).
fileModificationChecking : Monitoring run-time modified files using timeStampMaster (fileModificationSkew 5, maxFileModificationPolls 20)
allowSystemOperations : Allowing user-supplied system call operations

// * * * * * * * * * * * * * * * * * * * * * * * * * * * * * * * * * * * * * //
Create time

Selecting physicsModel electroModel

Selecting electroModel monoDomainElectro

conductivity not found on disk, using value from "/Users/simaocastro/cardiacFoamv2/tutorials/manufacturedFDA/processor0/../constant/electroProperties/monoDomainElectroCoeffs"

conductivity tensor (cell 0): (0.111453 0 0 0 0.121585 0 0 0 0.0303964)
--> FOAM Warning : 
    From Foam::electroModels::monoDomainElectro::monoDomainElectro(const word &, Time &, const word &)
    in file monoDomainElectro/monoDomainElectro.C at line 321
    Stimulus box index 0 does not contain any mesh cells.
Surface-to-volume ratio chi = chi [0 -1 0 0 0 0 0] 3
Membrane capacitance Cm = Cm [-1 -4 4 0 0 2 0] 2

Using pre/post processor tmanufacturedFDA for ionic model tmanufacturedFDA.
Running preProcess with fields 3(u1 u2 u3).
Time = 3.50471e-05

Solving the mono-domain equation for Vm using an implicit approach
DEBUG cell=0 t=0→3.50471e-05 step=3.50471e-05 V=0.999952 u1=2.00308 u2=0.998441 u3=0 Iion=0
Selecting ODE solver RKF45
DEBUG cell=0 t=0→3.50471e-05 step=0.000315424 V=0.999952 u1=2.00313 u2=0.998406 u3=0 Iion=-1.36658

PIMPLE: no residual control data found. Calculations will employ 2 corrector loops

PIMPLE: iteration 1
DICPCG:  Solving for Vm, Initial residual = 8.76146e-06, Final residual = 5.04506e-25, No Iterations 3
PIMPLE: iteration 2
DICPCG:  Solving for Vm, Initial residual = 5.20007e-17, Final residual = 5.20007e-17, No Iterations 0
ExecutionTime = 0.01 s  ClockTime = 0 s

Time = 7.00942e-05

DEBUG cell=0 t=3.50471e-05→7.00942e-05 step=3.50471e-05 V=0.999969 u1=2.00313 u2=0.998406 u3=0 Iion=-1.36658
DEBUG cell=0 t=3.50471e-05→7.00942e-05 step=0.000315424 V=0.999969 u1=2.00318 u2=0.998371 u3=0 Iion=-1.36657
PIMPLE: iteration 1
DICPCG:  Solving for Vm, Initial residual = 8.7612e-06, Final residual = 1.50195e-25, No Iterations 3
PIMPLE: iteration 2
DICPCG:  Solving for Vm, Initial residual = 4.9394e-17, Final residual = 4.9394e-17, No Iterations 0
ExecutionTime = 0.01 s  ClockTime = 0 s

Time = 0.000105141

DEBUG cell=0 t=7.00942e-05→0.000105141 step=3.50471e-05 V=0.999987 u1=2.00318 u2=0.998371 u3=0 Iion=-1.36657
DEBUG cell=0 t=7.00942e-05→0.000105141 step=0.000315424 V=0.999987 u1=2.00323 u2=0.998336 u3=0 Iion=-1.36656
PIMPLE: iteration 1
DICPCG:  Solving for Vm, Initial residual = 8.76091e-06, Final residual = 1.88488e-25, No Iterations 3
PIMPLE: iteration 2
DICPCG:  Solving for Vm, Initial residual = 4.72201e-17, Final residual = 4.72201e-17, No Iterations 0
ExecutionTime = 0.01 s  ClockTime = 0 s

Time = 0.000140188

DEBUG cell=0 t=0.000105141→0.000140188 step=3.50471e-05 V=1 u1=2.00323 u2=0.998336 u3=0 Iion=-1.36656
DEBUG cell=0 t=0.000105141→0.000140188 step=0.000315424 V=1 u1=2.00329 u2=0.998301 u3=0 Iion=-1.36655
PIMPLE: iteration 1
DICPCG:  Solving for Vm, Initial residual = 8.76061e-06, Final residual = 1.80369e-25, No Iterations 3
PIMPLE: iteration 2
DICPCG:  Solving for Vm, Initial residual = 5.07758e-17, Final residual = 5.07758e-17, No Iterations 0
ExecutionTime = 0.01 s  ClockTime = 0 s

Time = 0.000175235

DEBUG cell=0 t=0.000140188→0.000175235 step=3.50471e-05 V=1.00002 u1=2.00329 u2=0.998301 u3=0 Iion=-1.36655
DEBUG cell=0 t=0.000140188→0.000175235 step=0.000315424 V=1.00002 u1=2.00334 u2=0.998266 u3=0 Iion=-1.36654
PIMPLE: iteration 1
DICPCG:  Solving for Vm, Initial residual = 8.76031e-06, Final residual = 1.26806e-25, No Iterations 3
PIMPLE: iteration 2
DICPCG:  Solving for Vm, Initial residual = 3.73045e-17, Final residual = 3.73045e-17, No Iterations 0
ExecutionTime = 0.01 s  ClockTime = 0 s

Time = 0.000210283

DEBUG cell=0 t=0.000175235→0.000210283 step=3.50471e-05 V=1.00004 u1=2.00334 u2=0.998266 u3=0 Iion=-1.36654
DEBUG cell=0 t=0.000175235→0.000210283 step=0.000315424 V=1.00004 u1=2.00339 u2=0.998231 u3=0 Iion=-1.36653
PIMPLE: iteration 1
DICPCG:  Solving for Vm, Initial residual = 8.76e-06, Final residual = 2.62372e-25, No Iterations 3
PIMPLE: iteration 2
DICPCG:  Solving for Vm, Initial residual = 4.61227e-17, Final residual = 4.61227e-17, No Iterations 0
ExecutionTime = 0.01 s  ClockTime = 0 s

Time = 0.00024533

DEBUG cell=0 t=0.000210283→0.00024533 step=3.50471e-05 V=1.00006 u1=2.00339 u2=0.998231 u3=0 Iion=-1.36653
DEBUG cell=0 t=0.000210283→0.00024533 step=0.000315424 V=1.00006 u1=2.00345 u2=0.998196 u3=0 Iion=-1.36652
PIMPLE: iteration 1
DICPCG:  Solving for Vm, Initial residual = 8.75969e-06, Final residual = 1.76665e-25, No Iterations 3
PIMPLE: iteration 2
DICPCG:  Solving for Vm, Initial residual = 5.31582e-17, Final residual = 5.31582e-17, No Iterations 0
ExecutionTime = 0.01 s  ClockTime = 0 s

Time = 0.000280377

DEBUG cell=0 t=0.00024533→0.000280377 step=3.50471e-05 V=1.00007 u1=2.00345 u2=0.998196 u3=0 Iion=-1.36652
DEBUG cell=0 t=0.00024533→0.000280377 step=0.000315424 V=1.00007 u1=2.0035 u2=0.998161 u3=0 Iion=-1.36651
PIMPLE: iteration 1
DICPCG:  Solving for Vm, Initial residual = 8.75939e-06, Final residual = 1.51744e-25, No Iterations 3
PIMPLE: iteration 2
DICPCG:  Solving for Vm, Initial residual = 3.88813e-17, Final residual = 3.88813e-17, No Iterations 0
ExecutionTime = 0.01 s  ClockTime = 0 s

Time = 0.000315424

DEBUG cell=0 t=0.000280377→0.000315424 step=3.50471e-05 V=1.00009 u1=2.0035 u2=0.998161 u3=0 Iion=-1.36651
DEBUG cell=0 t=0.000280377→0.000315424 step=0.000315424 V=1.00009 u1=2.00355 u2=0.998126 u3=0 Iion=-1.36649
PIMPLE: iteration 1
DICPCG:  Solving for Vm, Initial residual = 8.75908e-06, Final residual = 2.10993e-25, No Iterations 3
PIMPLE: iteration 2
DICPCG:  Solving for Vm, Initial residual = 4.44398e-17, Final residual = 4.44398e-17, No Iterations 0
ExecutionTime = 0.01 s  ClockTime = 0 s

Time = 0.000350471

DEBUG cell=0 t=0.000315424→0.000350471 step=3.50471e-05 V=1.00011 u1=2.00355 u2=0.998126 u3=0 Iion=-1.36649
DEBUG cell=0 t=0.000315424→0.000350471 step=0.000315424 V=1.00011 u1=2.0036 u2=0.998091 u3=0 Iion=-1.36648
PIMPLE: iteration 1
DICPCG:  Solving for Vm, Initial residual = 8.75877e-06, Final residual = 1.69843e-25, No Iterations 3
PIMPLE: iteration 2
DICPCG:  Solving for Vm, Initial residual = 4.99472e-17, Final residual = 4.99472e-17, No Iterations 0
ExecutionTime = 0.01 s  ClockTime = 0 s

Time = 0.000385518

DEBUG cell=0 t=0.000350471→0.000385518 step=3.50471e-05 V=1.00013 u1=2.0036 u2=0.998091 u3=0 Iion=-1.36648
DEBUG cell=0 t=0.000350471→0.000385518 step=0.000315424 V=1.00013 u1=2.00366 u2=0.998056 u3=0 Iion=-1.36647
PIMPLE: iteration 1
DICPCG:  Solving for Vm, Initial residual = 8.75847e-06, Final residual = 1.57089e-25, No Iterations 3
PIMPLE: iteration 2
DICPCG:  Solving for Vm, Initial residual = 5.37231e-17, Final residual = 5.37231e-17, No Iterations 0
ExecutionTime = 0.01 s  ClockTime = 0 s

Time = 0.000420565

DEBUG cell=0 t=0.000385518→0.000420565 step=3.50471e-05 V=1.00014 u1=2.00366 u2=0.998056 u3=0 Iion=-1.36647
DEBUG cell=0 t=0.000385518→0.000420565 step=0.000315424 V=1.00014 u1=2.00371 u2=0.998021 u3=0 Iion=-1.36646
PIMPLE: iteration 1
DICPCG:  Solving for Vm, Initial residual = 8.75816e-06, Final residual = 1.61971e-25, No Iterations 3
PIMPLE: iteration 2
DICPCG:  Solving for Vm, Initial residual = 4.52522e-17, Final residual = 4.52522e-17, No Iterations 0
ExecutionTime = 0.01 s  ClockTime = 0 s

Time = 0.000455612

DEBUG cell=0 t=0.000420565→0.000455612 step=3.50471e-05 V=1.00016 u1=2.00371 u2=0.998021 u3=0 Iion=-1.36646
DEBUG cell=0 t=0.000420565→0.000455612 step=0.000315424 V=1.00016 u1=2.00376 u2=0.997986 u3=0 Iion=-1.36645
PIMPLE: iteration 1
DICPCG:  Solving for Vm, Initial residual = 8.75785e-06, Final residual = 1.43287e-25, No Iterations 3
PIMPLE: iteration 2
DICPCG:  Solving for Vm, Initial residual = 5.45614e-17, Final residual = 5.45614e-17, No Iterations 0
ExecutionTime = 0.01 s  ClockTime = 0 s

Time = 0.000490659

DEBUG cell=0 t=0.000455612→0.000490659 step=3.50471e-05 V=1.00018 u1=2.00376 u2=0.997986 u3=0 Iion=-1.36645
DEBUG cell=0 t=0.000455612→0.000490659 step=0.000315424 V=1.00018 u1=2.00381 u2=0.997951 u3=0 Iion=-1.36644
PIMPLE: iteration 1
DICPCG:  Solving for Vm, Initial residual = 8.75755e-06, Final residual = 1.86574e-25, No Iterations 3
PIMPLE: iteration 2
DICPCG:  Solving for Vm, Initial residual = 5.28292e-17, Final residual = 5.28292e-17, No Iterations 0
ExecutionTime = 0.01 s  ClockTime = 0 s

Time = 0.000525706

DEBUG cell=0 t=0.000490659→0.000525706 step=3.50471e-05 V=1.0002 u1=2.00381 u2=0.997951 u3=0 Iion=-1.36644
DEBUG cell=0 t=0.000490659→0.000525706 step=0.000315424 V=1.0002 u1=2.00387 u2=0.997917 u3=0 Iion=-1.36643
PIMPLE: iteration 1
DICPCG:  Solving for Vm, Initial residual = 8.75724e-06, Final residual = 1.8396e-25, No Iterations 3
PIMPLE: iteration 2
DICPCG:  Solving for Vm, Initial residual = 4.1346e-17, Final residual = 4.1346e-17, No Iterations 0
ExecutionTime = 0.01 s  ClockTime = 0 s

Time = 0.000560754

DEBUG cell=0 t=0.000525706→0.000560754 step=3.50471e-05 V=1.00021 u1=2.00387 u2=0.997917 u3=0 Iion=-1.36643
DEBUG cell=0 t=0.000525706→0.000560754 step=0.000315424 V=1.00021 u1=2.00392 u2=0.997882 u3=0 Iion=-1.36642
PIMPLE: iteration 1
DICPCG:  Solving for Vm, Initial residual = 8.75693e-06, Final residual = 2.10321e-25, No Iterations 3
PIMPLE: iteration 2
DICPCG:  Solving for Vm, Initial residual = 4.2177e-17, Final residual = 4.2177e-17, No Iterations 0
ExecutionTime = 0.01 s  ClockTime = 0 s

Time = 0.000595801

DEBUG cell=0 t=0.000560754→0.000595801 step=3.50471e-05 V=1.00023 u1=2.00392 u2=0.997882 u3=0 Iion=-1.36642
DEBUG cell=0 t=0.000560754→0.000595801 step=0.000315424 V=1.00023 u1=2.00397 u2=0.997847 u3=0 Iion=-1.36641
PIMPLE: iteration 1
DICPCG:  Solving for Vm, Initial residual = 8.75662e-06, Final residual = 1.58437e-25, No Iterations 3
PIMPLE: iteration 2
DICPCG:  Solving for Vm, Initial residual = 4.86682e-17, Final residual = 4.86682e-17, No Iterations 0
ExecutionTime = 0.01 s  ClockTime = 0 s

Time = 0.000630848

DEBUG cell=0 t=0.000595801→0.000630848 step=3.50471e-05 V=1.00025 u1=2.00397 u2=0.997847 u3=0 Iion=-1.36641
DEBUG cell=0 t=0.000595801→0.000630848 step=0.000315424 V=1.00025 u1=2.00402 u2=0.997812 u3=0 Iion=-1.36639
PIMPLE: iteration 1
DICPCG:  Solving for Vm, Initial residual = 8.75632e-06, Final residual = 1.58091e-25, No Iterations 3
PIMPLE: iteration 2
DICPCG:  Solving for Vm, Initial residual = 4.74029e-17, Final residual = 4.74029e-17, No Iterations 0
ExecutionTime = 0.01 s  ClockTime = 0 s

Time = 0.000665895

DEBUG cell=0 t=0.000630848→0.000665895 step=3.50471e-05 V=1.00027 u1=2.00402 u2=0.997812 u3=0 Iion=-1.36639
DEBUG cell=0 t=0.000630848→0.000665895 step=0.000315424 V=1.00027 u1=2.00408 u2=0.997777 u3=0 Iion=-1.36638
PIMPLE: iteration 1
DICPCG:  Solving for Vm, Initial residual = 8.75601e-06, Final residual = 1.61624e-25, No Iterations 3
PIMPLE: iteration 2
DICPCG:  Solving for Vm, Initial residual = 4.61122e-17, Final residual = 4.61122e-17, No Iterations 0
ExecutionTime = 0.01 s  ClockTime = 0 s

Time = 0.000700942

DEBUG cell=0 t=0.000665895→0.000700942 step=3.50471e-05 V=1.00028 u1=2.00408 u2=0.997777 u3=0 Iion=-1.36638
DEBUG cell=0 t=0.000665895→0.000700942 step=0.000315424 V=1.00028 u1=2.00413 u2=0.997742 u3=0 Iion=-1.36637
PIMPLE: iteration 1
DICPCG:  Solving for Vm, Initial residual = 8.7557e-06, Final residual = 2.58789e-25, No Iterations 3
PIMPLE: iteration 2
DICPCG:  Solving for Vm, Initial residual = 4.58738e-17, Final residual = 4.58738e-17, No Iterations 0
ExecutionTime = 0.01 s  ClockTime = 0 s

Time = 0.000735989

DEBUG cell=0 t=0.000700942→0.000735989 step=3.50471e-05 V=1.0003 u1=2.00413 u2=0.997742 u3=0 Iion=-1.36637
DEBUG cell=0 t=0.000700942→0.000735989 step=0.000315424 V=1.0003 u1=2.00418 u2=0.997707 u3=0 Iion=-1.36636
PIMPLE: iteration 1
DICPCG:  Solving for Vm, Initial residual = 8.7554e-06, Final residual = 1.94358e-25, No Iterations 3
PIMPLE: iteration 2
DICPCG:  Solving for Vm, Initial residual = 4.80962e-17, Final residual = 4.80962e-17, No Iterations 0
ExecutionTime = 0.01 s  ClockTime = 0 s

Time = 0.000771036

DEBUG cell=0 t=0.000735989→0.000771036 step=3.50471e-05 V=1.00032 u1=2.00418 u2=0.997707 u3=0 Iion=-1.36636
DEBUG cell=0 t=0.000735989→0.000771036 step=0.000315424 V=1.00032 u1=2.00424 u2=0.997672 u3=0 Iion=-1.36635
PIMPLE: iteration 1
DICPCG:  Solving for Vm, Initial residual = 8.75509e-06, Final residual = 1.34489e-25, No Iterations 3
PIMPLE: iteration 2
DICPCG:  Solving for Vm, Initial residual = 4.54055e-17, Final residual = 4.54055e-17, No Iterations 0
ExecutionTime = 0.01 s  ClockTime = 0 s

Time = 0.000806083

DEBUG cell=0 t=0.000771036→0.000806083 step=3.50471e-05 V=1.00034 u1=2.00424 u2=0.997672 u3=0 Iion=-1.36635
DEBUG cell=0 t=0.000771036→0.000806083 step=0.000315424 V=1.00034 u1=2.00429 u2=0.997637 u3=0 Iion=-1.36634
PIMPLE: iteration 1
DICPCG:  Solving for Vm, Initial residual = 8.75479e-06, Final residual = 2.14351e-25, No Iterations 3
PIMPLE: iteration 2
DICPCG:  Solving for Vm, Initial residual = 4.53792e-17, Final residual = 4.53792e-17, No Iterations 0
ExecutionTime = 0.01 s  ClockTime = 0 s

Time = 0.00084113

DEBUG cell=0 t=0.000806083→0.00084113 step=3.50471e-05 V=1.00035 u1=2.00429 u2=0.997637 u3=0 Iion=-1.36634
DEBUG cell=0 t=0.000806083→0.00084113 step=0.000315424 V=1.00035 u1=2.00434 u2=0.997602 u3=0 Iion=-1.36633
PIMPLE: iteration 1
DICPCG:  Solving for Vm, Initial residual = 8.75448e-06, Final residual = 1.60579e-25, No Iterations 3
PIMPLE: iteration 2
DICPCG:  Solving for Vm, Initial residual = 3.79879e-17, Final residual = 3.79879e-17, No Iterations 0
ExecutionTime = 0.01 s  ClockTime = 0 s

Time = 0.000876177

DEBUG cell=0 t=0.00084113→0.000876177 step=3.50471e-05 V=1.00037 u1=2.00434 u2=0.997602 u3=0 Iion=-1.36633
DEBUG cell=0 t=0.00084113→0.000876177 step=0.000315424 V=1.00037 u1=2.00439 u2=0.997567 u3=0 Iion=-1.36632
PIMPLE: iteration 1
DICPCG:  Solving for Vm, Initial residual = 8.75417e-06, Final residual = 1.45036e-25, No Iterations 3
PIMPLE: iteration 2
DICPCG:  Solving for Vm, Initial residual = 4.95947e-17, Final residual = 4.95947e-17, No Iterations 0
ExecutionTime = 0.01 s  ClockTime = 0 s

Time = 0.000911225

DEBUG cell=0 t=0.000876177→0.000911225 step=3.50471e-05 V=1.00039 u1=2.00439 u2=0.997567 u3=0 Iion=-1.36632
DEBUG cell=0 t=0.000876177→0.000911225 step=0.000315424 V=1.00039 u1=2.00445 u2=0.997532 u3=0 Iion=-1.36631
PIMPLE: iteration 1
DICPCG:  Solving for Vm, Initial residual = 8.75387e-06, Final residual = 1.65102e-25, No Iterations 3
PIMPLE: iteration 2
DICPCG:  Solving for Vm, Initial residual = 4.5012e-17, Final residual = 4.5012e-17, No Iterations 0
ExecutionTime = 0.01 s  ClockTime = 0 s

Time = 0.000946272

DEBUG cell=0 t=0.000911225→0.000946272 step=3.50471e-05 V=1.00041 u1=2.00445 u2=0.997532 u3=0 Iion=-1.36631
DEBUG cell=0 t=0.000911225→0.000946272 step=0.000315424 V=1.00041 u1=2.0045 u2=0.997497 u3=0 Iion=-1.36629
PIMPLE: iteration 1
DICPCG:  Solving for Vm, Initial residual = 8.75356e-06, Final residual = 1.61808e-25, No Iterations 3
PIMPLE: iteration 2
DICPCG:  Solving for Vm, Initial residual = 4.513e-17, Final residual = 4.513e-17, No Iterations 0
ExecutionTime = 0.01 s  ClockTime = 0 s

Time = 0.000981319

DEBUG cell=0 t=0.000946272→0.000981319 step=3.50471e-05 V=1.00042 u1=2.0045 u2=0.997497 u3=0 Iion=-1.36629
DEBUG cell=0 t=0.000946272→0.000981319 step=0.000315424 V=1.00042 u1=2.00455 u2=0.997462 u3=0 Iion=-1.36628
PIMPLE: iteration 1
DICPCG:  Solving for Vm, Initial residual = 8.75325e-06, Final residual = 2.48457e-25, No Iterations 3
PIMPLE: iteration 2
DICPCG:  Solving for Vm, Initial residual = 4.61389e-17, Final residual = 4.61389e-17, No Iterations 0
ExecutionTime = 0.01 s  ClockTime = 0 s

Time = 0.00101637

DEBUG cell=0 t=0.000981319→0.00101637 step=3.50471e-05 V=1.00044 u1=2.00455 u2=0.997462 u3=0 Iion=-1.36628
DEBUG cell=0 t=0.000981319→0.00101637 step=0.000315424 V=1.00044 u1=2.0046 u2=0.997427 u3=0 Iion=-1.36627
PIMPLE: iteration 1
DICPCG:  Solving for Vm, Initial residual = 8.75295e-06, Final residual = 1.39396e-25, No Iterations 3
PIMPLE: iteration 2
DICPCG:  Solving for Vm, Initial residual = 5.44019e-17, Final residual = 5.44019e-17, No Iterations 0
ExecutionTime = 0.01 s  ClockTime = 0 s

Time = 0.00105141

DEBUG cell=0 t=0.00101637→0.00105141 step=3.50471e-05 V=1.00046 u1=2.0046 u2=0.997427 u3=0 Iion=-1.36627
DEBUG cell=0 t=0.00101637→0.00105141 step=0.000315424 V=1.00046 u1=2.00466 u2=0.997392 u3=0 Iion=-1.36626
PIMPLE: iteration 1
DICPCG:  Solving for Vm, Initial residual = 8.75264e-06, Final residual = 1.61211e-25, No Iterations 3
PIMPLE: iteration 2
DICPCG:  Solving for Vm, Initial residual = 4.1963e-17, Final residual = 4.1963e-17, No Iterations 0
ExecutionTime = 0.01 s  ClockTime = 0 s

Time = 0.00108646

DEBUG cell=0 t=0.00105141→0.00108646 step=3.50471e-05 V=1.00048 u1=2.00466 u2=0.997392 u3=0 Iion=-1.36626
DEBUG cell=0 t=0.00105141→0.00108646 step=0.000315424 V=1.00048 u1=2.00471 u2=0.997358 u3=0 Iion=-1.36625
PIMPLE: iteration 1
DICPCG:  Solving for Vm, Initial residual = 8.75233e-06, Final residual = 1.65345e-25, No Iterations 3
PIMPLE: iteration 2
DICPCG:  Solving for Vm, Initial residual = 4.91398e-17, Final residual = 4.91398e-17, No Iterations 0
ExecutionTime = 0.01 s  ClockTime = 0 s

Time = 0.00112151

DEBUG cell=0 t=0.00108646→0.00112151 step=3.50471e-05 V=1.00049 u1=2.00471 u2=0.997358 u3=0 Iion=-1.36625
DEBUG cell=0 t=0.00108646→0.00112151 step=0.000315424 V=1.00049 u1=2.00476 u2=0.997323 u3=0 Iion=-1.36624
PIMPLE: iteration 1
DICPCG:  Solving for Vm, Initial residual = 8.75203e-06, Final residual = 1.33207e-25, No Iterations 3
PIMPLE: iteration 2
DICPCG:  Solving for Vm, Initial residual = 5.00637e-17, Final residual = 5.00637e-17, No Iterations 0
ExecutionTime = 0.01 s  ClockTime = 0 s

Time = 0.00115655

DEBUG cell=0 t=0.00112151→0.00115655 step=3.50471e-05 V=1.00051 u1=2.00476 u2=0.997323 u3=0 Iion=-1.36624
DEBUG cell=0 t=0.00112151→0.00115655 step=0.000315424 V=1.00051 u1=2.00482 u2=0.997288 u3=0 Iion=-1.36623
PIMPLE: iteration 1
DICPCG:  Solving for Vm, Initial residual = 8.75172e-06, Final residual = 2.41549e-25, No Iterations 3
PIMPLE: iteration 2
DICPCG:  Solving for Vm, Initial residual = 4.91636e-17, Final residual = 4.91636e-17, No Iterations 0
ExecutionTime = 0.01 s  ClockTime = 0 s

Time = 0.0011916

DEBUG cell=0 t=0.00115655→0.0011916 step=3.50471e-05 V=1.00053 u1=2.00482 u2=0.997288 u3=0 Iion=-1.36623
DEBUG cell=0 t=0.00115655→0.0011916 step=0.000315424 V=1.00053 u1=2.00487 u2=0.997253 u3=0 Iion=-1.36622
PIMPLE: iteration 1
DICPCG:  Solving for Vm, Initial residual = 8.75141e-06, Final residual = 1.48989e-25, No Iterations 3
PIMPLE: iteration 2
DICPCG:  Solving for Vm, Initial residual = 5.02147e-17, Final residual = 5.02147e-17, No Iterations 0
ExecutionTime = 0.01 s  ClockTime = 0 s

Time = 0.00122665

DEBUG cell=0 t=0.0011916→0.00122665 step=3.50471e-05 V=1.00055 u1=2.00487 u2=0.997253 u3=0 Iion=-1.36622
DEBUG cell=0 t=0.0011916→0.00122665 step=0.000315424 V=1.00055 u1=2.00492 u2=0.997218 u3=0 Iion=-1.36621
PIMPLE: iteration 1
DICPCG:  Solving for Vm, Initial residual = 8.75111e-06, Final residual = 1.53139e-25, No Iterations 3
PIMPLE: iteration 2
DICPCG:  Solving for Vm, Initial residual = 4.74821e-17, Final residual = 4.74821e-17, No Iterations 0
ExecutionTime = 0.01 s  ClockTime = 0 s

Time = 0.0012617

DEBUG cell=0 t=0.00122665→0.0012617 step=3.50471e-05 V=1.00056 u1=2.00492 u2=0.997218 u3=0 Iion=-1.36621
DEBUG cell=0 t=0.00122665→0.0012617 step=0.000315424 V=1.00056 u1=2.00497 u2=0.997183 u3=0 Iion=-1.3662
PIMPLE: iteration 1
DICPCG:  Solving for Vm, Initial residual = 8.7508e-06, Final residual = 1.70682e-25, No Iterations 3
PIMPLE: iteration 2
DICPCG:  Solving for Vm, Initial residual = 5.03911e-17, Final residual = 5.03911e-17, No Iterations 0
ExecutionTime = 0.01 s  ClockTime = 0 s

Time = 0.00129674

DEBUG cell=0 t=0.0012617→0.00129674 step=3.50471e-05 V=1.00058 u1=2.00497 u2=0.997183 u3=0 Iion=-1.3662
DEBUG cell=0 t=0.0012617→0.00129674 step=0.000315424 V=1.00058 u1=2.00503 u2=0.997148 u3=0 Iion=-1.36618
PIMPLE: iteration 1
DICPCG:  Solving for Vm, Initial residual = 8.7505e-06, Final residual = 1.63062e-25, No Iterations 3
PIMPLE: iteration 2
DICPCG:  Solving for Vm, Initial residual = 3.47302e-17, Final residual = 3.47302e-17, No Iterations 0
ExecutionTime = 0.01 s  ClockTime = 0 s

Time = 0.00133179

DEBUG cell=0 t=0.00129674→0.00133179 step=3.50471e-05 V=1.0006 u1=2.00503 u2=0.997148 u3=0 Iion=-1.36618
DEBUG cell=0 t=0.00129674→0.00133179 step=0.000315424 V=1.0006 u1=2.00508 u2=0.997113 u3=0 Iion=-1.36617
PIMPLE: iteration 1
DICPCG:  Solving for Vm, Initial residual = 8.75019e-06, Final residual = 1.85667e-25, No Iterations 3
PIMPLE: iteration 2
DICPCG:  Solving for Vm, Initial residual = 4.22965e-17, Final residual = 4.22965e-17, No Iterations 0
ExecutionTime = 0.01 s  ClockTime = 0 s

Time = 0.00136684

DEBUG cell=0 t=0.00133179→0.00136684 step=3.50471e-05 V=1.00062 u1=2.00508 u2=0.997113 u3=0 Iion=-1.36617
DEBUG cell=0 t=0.00133179→0.00136684 step=0.000315424 V=1.00062 u1=2.00513 u2=0.997078 u3=0 Iion=-1.36616
PIMPLE: iteration 1
DICPCG:  Solving for Vm, Initial residual = 8.74988e-06, Final residual = 1.84523e-25, No Iterations 3
PIMPLE: iteration 2
DICPCG:  Solving for Vm, Initial residual = 4.62318e-17, Final residual = 4.62318e-17, No Iterations 0
ExecutionTime = 0.01 s  ClockTime = 0 s

Time = 0.00140188

DEBUG cell=0 t=0.00136684→0.00140188 step=3.50471e-05 V=1.00063 u1=2.00513 u2=0.997078 u3=0 Iion=-1.36616
DEBUG cell=0 t=0.00136684→0.00140188 step=0.000315424 V=1.00063 u1=2.00518 u2=0.997043 u3=0 Iion=-1.36615
PIMPLE: iteration 1
DICPCG:  Solving for Vm, Initial residual = 8.74958e-06, Final residual = 1.4771e-25, No Iterations 3
PIMPLE: iteration 2
DICPCG:  Solving for Vm, Initial residual = 4.54845e-17, Final residual = 4.54845e-17, No Iterations 0
ExecutionTime = 0.01 s  ClockTime = 0 s

Time = 0.00143693

DEBUG cell=0 t=0.00140188→0.00143693 step=3.50471e-05 V=1.00065 u1=2.00518 u2=0.997043 u3=0 Iion=-1.36615
DEBUG cell=0 t=0.00140188→0.00143693 step=0.000315424 V=1.00065 u1=2.00524 u2=0.997009 u3=0 Iion=-1.36614
PIMPLE: iteration 1
DICPCG:  Solving for Vm, Initial residual = 8.74927e-06, Final residual = 1.42922e-25, No Iterations 3
PIMPLE: iteration 2
DICPCG:  Solving for Vm, Initial residual = 5.10398e-17, Final residual = 5.10398e-17, No Iterations 0
ExecutionTime = 0.01 s  ClockTime = 0 s

Time = 0.00147198

DEBUG cell=0 t=0.00143693→0.00147198 step=3.50471e-05 V=1.00067 u1=2.00524 u2=0.997009 u3=0 Iion=-1.36614
DEBUG cell=0 t=0.00143693→0.00147198 step=0.000315424 V=1.00067 u1=2.00529 u2=0.996974 u3=0 Iion=-1.36613
PIMPLE: iteration 1
DICPCG:  Solving for Vm, Initial residual = 8.74896e-06, Final residual = 1.88086e-25, No Iterations 3
PIMPLE: iteration 2
DICPCG:  Solving for Vm, Initial residual = 4.82736e-17, Final residual = 4.82736e-17, No Iterations 0
ExecutionTime = 0.01 s  ClockTime = 0 s

Time = 0.00150703

DEBUG cell=0 t=0.00147198→0.00150703 step=3.50471e-05 V=1.00069 u1=2.00529 u2=0.996974 u3=0 Iion=-1.36613
DEBUG cell=0 t=0.00147198→0.00150703 step=0.000315424 V=1.00069 u1=2.00534 u2=0.996939 u3=0 Iion=-1.36612
PIMPLE: iteration 1
DICPCG:  Solving for Vm, Initial residual = 8.74866e-06, Final residual = 1.83795e-25, No Iterations 3
PIMPLE: iteration 2
DICPCG:  Solving for Vm, Initial residual = 4.87139e-17, Final residual = 4.87139e-17, No Iterations 0
ExecutionTime = 0.01 s  ClockTime = 0 s

Time = 0.00154207

DEBUG cell=0 t=0.00150703→0.00154207 step=3.50471e-05 V=1.00071 u1=2.00534 u2=0.996939 u3=0 Iion=-1.36612
DEBUG cell=0 t=0.00150703→0.00154207 step=0.000315424 V=1.00071 u1=2.00539 u2=0.996904 u3=0 Iion=-1.36611
PIMPLE: iteration 1
DICPCG:  Solving for Vm, Initial residual = 8.74835e-06, Final residual = 1.74665e-25, No Iterations 3
PIMPLE: iteration 2
DICPCG:  Solving for Vm, Initial residual = 4.91456e-17, Final residual = 4.91456e-17, No Iterations 0
ExecutionTime = 0.01 s  ClockTime = 0 s

Time = 0.00157712

DEBUG cell=0 t=0.00154207→0.00157712 step=3.50471e-05 V=1.00072 u1=2.00539 u2=0.996904 u3=0 Iion=-1.36611
DEBUG cell=0 t=0.00154207→0.00157712 step=0.000315424 V=1.00072 u1=2.00545 u2=0.996869 u3=0 Iion=-1.3661
PIMPLE: iteration 1
DICPCG:  Solving for Vm, Initial residual = 8.74805e-06, Final residual = 1.94448e-25, No Iterations 3
PIMPLE: iteration 2
DICPCG:  Solving for Vm, Initial residual = 4.38605e-17, Final residual = 4.38605e-17, No Iterations 0
ExecutionTime = 0.01 s  ClockTime = 0 s

Time = 0.00161217

DEBUG cell=0 t=0.00157712→0.00161217 step=3.50471e-05 V=1.00074 u1=2.00545 u2=0.996869 u3=0 Iion=-1.3661
DEBUG cell=0 t=0.00157712→0.00161217 step=0.000315424 V=1.00074 u1=2.0055 u2=0.996834 u3=0 Iion=-1.36608
PIMPLE: iteration 1
DICPCG:  Solving for Vm, Initial residual = 8.74774e-06, Final residual = 1.54427e-25, No Iterations 3
PIMPLE: iteration 2
DICPCG:  Solving for Vm, Initial residual = 4.94916e-17, Final residual = 4.94916e-17, No Iterations 0
ExecutionTime = 0.01 s  ClockTime = 0 s

Time = 0.00164721

DEBUG cell=0 t=0.00161217→0.00164721 step=3.50471e-05 V=1.00076 u1=2.0055 u2=0.996834 u3=0 Iion=-1.36608
DEBUG cell=0 t=0.00161217→0.00164721 step=0.000315424 V=1.00076 u1=2.00555 u2=0.996799 u3=0 Iion=-1.36607
PIMPLE: iteration 1
DICPCG:  Solving for Vm, Initial residual = 8.74743e-06, Final residual = 1.57626e-25, No Iterations 3
PIMPLE: iteration 2
DICPCG:  Solving for Vm, Initial residual = 4.47834e-17, Final residual = 4.47834e-17, No Iterations 0
ExecutionTime = 0.01 s  ClockTime = 0 s

Time = 0.00168226

DEBUG cell=0 t=0.00164721→0.00168226 step=3.50471e-05 V=1.00078 u1=2.00555 u2=0.996799 u3=0 Iion=-1.36607
DEBUG cell=0 t=0.00164721→0.00168226 step=0.000315424 V=1.00078 u1=2.00561 u2=0.996764 u3=0 Iion=-1.36606
PIMPLE: iteration 1
DICPCG:  Solving for Vm, Initial residual = 8.74713e-06, Final residual = 1.40896e-25, No Iterations 3
PIMPLE: iteration 2
DICPCG:  Solving for Vm, Initial residual = 4.95578e-17, Final residual = 4.95578e-17, No Iterations 0
ExecutionTime = 0.01 s  ClockTime = 0 s

Time = 0.00171731

DEBUG cell=0 t=0.00168226→0.00171731 step=3.50471e-05 V=1.00079 u1=2.00561 u2=0.996764 u3=0 Iion=-1.36606
DEBUG cell=0 t=0.00168226→0.00171731 step=0.000315424 V=1.00079 u1=2.00566 u2=0.996729 u3=0 Iion=-1.36605
PIMPLE: iteration 1
DICPCG:  Solving for Vm, Initial residual = 8.74682e-06, Final residual = 2.47955e-25, No Iterations 3
PIMPLE: iteration 2
DICPCG:  Solving for Vm, Initial residual = 4.65206e-17, Final residual = 4.65206e-17, No Iterations 0
ExecutionTime = 0.01 s  ClockTime = 0 s

Time = 0.00175235

DEBUG cell=0 t=0.00171731→0.00175235 step=3.50471e-05 V=1.00081 u1=2.00566 u2=0.996729 u3=0 Iion=-1.36605
DEBUG cell=0 t=0.00171731→0.00175235 step=0.000315424 V=1.00081 u1=2.00571 u2=0.996695 u3=0 Iion=-1.36604
PIMPLE: iteration 1
DICPCG:  Solving for Vm, Initial residual = 8.74652e-06, Final residual = 1.22294e-25, No Iterations 3
PIMPLE: iteration 2
DICPCG:  Solving for Vm, Initial residual = 4.88351e-17, Final residual = 4.88351e-17, No Iterations 0
ExecutionTime = 0.01 s  ClockTime = 0 s

Time = 0.0017874

DEBUG cell=0 t=0.00175235→0.0017874 step=3.50471e-05 V=1.00083 u1=2.00571 u2=0.996695 u3=0 Iion=-1.36604
DEBUG cell=0 t=0.00175235→0.0017874 step=0.000315424 V=1.00083 u1=2.00576 u2=0.99666 u3=0 Iion=-1.36603
PIMPLE: iteration 1
DICPCG:  Solving for Vm, Initial residual = 8.74621e-06, Final residual = 2.99786e-25, No Iterations 3
PIMPLE: iteration 2
DICPCG:  Solving for Vm, Initial residual = 4.85798e-17, Final residual = 4.85798e-17, No Iterations 0
ExecutionTime = 0.01 s  ClockTime = 0 s

Time = 0.00182245

DEBUG cell=0 t=0.0017874→0.00182245 step=3.50471e-05 V=1.00085 u1=2.00576 u2=0.99666 u3=0 Iion=-1.36603
DEBUG cell=0 t=0.0017874→0.00182245 step=0.000315424 V=1.00085 u1=2.00582 u2=0.996625 u3=0 Iion=-1.36602
PIMPLE: iteration 1
DICPCG:  Solving for Vm, Initial residual = 8.7459e-06, Final residual = 1.9328e-25, No Iterations 3
PIMPLE: iteration 2
DICPCG:  Solving for Vm, Initial residual = 4.78411e-17, Final residual = 4.78411e-17, No Iterations 0
ExecutionTime = 0.01 s  ClockTime = 0 s

Time = 0.0018575

DEBUG cell=0 t=0.00182245→0.0018575 step=3.50471e-05 V=1.00086 u1=2.00582 u2=0.996625 u3=0 Iion=-1.36602
DEBUG cell=0 t=0.00182245→0.0018575 step=0.000315424 V=1.00086 u1=2.00587 u2=0.99659 u3=0 Iion=-1.36601
PIMPLE: iteration 1
DICPCG:  Solving for Vm, Initial residual = 8.7456e-06, Final residual = 1.33825e-25, No Iterations 3
PIMPLE: iteration 2
DICPCG:  Solving for Vm, Initial residual = 4.72382e-17, Final residual = 4.72382e-17, No Iterations 0
ExecutionTime = 0.01 s  ClockTime = 0 s

Time = 0.00189254

DEBUG cell=0 t=0.0018575→0.00189254 step=3.50471e-05 V=1.00088 u1=2.00587 u2=0.99659 u3=0 Iion=-1.36601
DEBUG cell=0 t=0.0018575→0.00189254 step=0.000315424 V=1.00088 u1=2.00592 u2=0.996555 u3=0 Iion=-1.366
PIMPLE: iteration 1
DICPCG:  Solving for Vm, Initial residual = 8.74529e-06, Final residual = 1.47819e-25, No Iterations 3
PIMPLE: iteration 2
DICPCG:  Solving for Vm, Initial residual = 3.65602e-17, Final residual = 3.65602e-17, No Iterations 0
ExecutionTime = 0.01 s  ClockTime = 0 s

Time = 0.00192759

DEBUG cell=0 t=0.00189254→0.00192759 step=3.50471e-05 V=1.0009 u1=2.00592 u2=0.996555 u3=0 Iion=-1.366
DEBUG cell=0 t=0.00189254→0.00192759 step=0.000315424 V=1.0009 u1=2.00597 u2=0.99652 u3=0 Iion=-1.36599
PIMPLE: iteration 1
DICPCG:  Solving for Vm, Initial residual = 8.74499e-06, Final residual = 2.21986e-25, No Iterations 3
PIMPLE: iteration 2
DICPCG:  Solving for Vm, Initial residual = 4.61849e-17, Final residual = 4.61849e-17, No Iterations 0
ExecutionTime = 0.01 s  ClockTime = 0 s

Time = 0.00196264

DEBUG cell=0 t=0.00192759→0.00196264 step=3.50471e-05 V=1.00092 u1=2.00597 u2=0.99652 u3=0 Iion=-1.36599
DEBUG cell=0 t=0.00192759→0.00196264 step=0.000315424 V=1.00092 u1=2.00603 u2=0.996485 u3=0 Iion=-1.36597
PIMPLE: iteration 1
DICPCG:  Solving for Vm, Initial residual = 8.74468e-06, Final residual = 1.32175e-25, No Iterations 3
PIMPLE: iteration 2
DICPCG:  Solving for Vm, Initial residual = 5.10434e-17, Final residual = 5.10434e-17, No Iterations 0
ExecutionTime = 0.01 s  ClockTime = 0 s

Time = 0.00199768

DEBUG cell=0 t=0.00196264→0.00199768 step=3.50471e-05 V=1.00093 u1=2.00603 u2=0.996485 u3=0 Iion=-1.36597
DEBUG cell=0 t=0.00196264→0.00199768 step=0.000315424 V=1.00093 u1=2.00608 u2=0.996451 u3=0 Iion=-1.36596
PIMPLE: iteration 1
DICPCG:  Solving for Vm, Initial residual = 8.74437e-06, Final residual = 1.80849e-25, No Iterations 3
PIMPLE: iteration 2
DICPCG:  Solving for Vm, Initial residual = 3.94246e-17, Final residual = 3.94246e-17, No Iterations 0
ExecutionTime = 0.01 s  ClockTime = 0 s

Time = 0.00203273

DEBUG cell=0 t=0.00199768→0.00203273 step=3.50471e-05 V=1.00095 u1=2.00608 u2=0.996451 u3=0 Iion=-1.36596
DEBUG cell=0 t=0.00199768→0.00203273 step=0.000315424 V=1.00095 u1=2.00613 u2=0.996416 u3=0 Iion=-1.36595
PIMPLE: iteration 1
DICPCG:  Solving for Vm, Initial residual = 8.74407e-06, Final residual = 3.36392e-25, No Iterations 3
PIMPLE: iteration 2
DICPCG:  Solving for Vm, Initial residual = 5.41538e-17, Final residual = 5.41538e-17, No Iterations 0
ExecutionTime = 0.01 s  ClockTime = 0 s

Time = 0.00206778

DEBUG cell=0 t=0.00203273→0.00206778 step=3.50471e-05 V=1.00097 u1=2.00613 u2=0.996416 u3=0 Iion=-1.36595
DEBUG cell=0 t=0.00203273→0.00206778 step=0.000315424 V=1.00097 u1=2.00618 u2=0.996381 u3=0 Iion=-1.36594
PIMPLE: iteration 1
DICPCG:  Solving for Vm, Initial residual = 8.74376e-06, Final residual = 2.58766e-25, No Iterations 3
PIMPLE: iteration 2
DICPCG:  Solving for Vm, Initial residual = 4.50369e-17, Final residual = 4.50369e-17, No Iterations 0
ExecutionTime = 0.01 s  ClockTime = 0 s

Time = 0.00210283

DEBUG cell=0 t=0.00206778→0.00210283 step=3.50471e-05 V=1.00099 u1=2.00618 u2=0.996381 u3=0 Iion=-1.36594
DEBUG cell=0 t=0.00206778→0.00210283 step=0.000315424 V=1.00099 u1=2.00624 u2=0.996346 u3=0 Iion=-1.36593
PIMPLE: iteration 1
DICPCG:  Solving for Vm, Initial residual = 8.74346e-06, Final residual = 1.47246e-25, No Iterations 3
PIMPLE: iteration 2
DICPCG:  Solving for Vm, Initial residual = 4.28653e-17, Final residual = 4.28653e-17, No Iterations 0
ExecutionTime = 0.01 s  ClockTime = 0 s

Time = 0.00213787

DEBUG cell=0 t=0.00210283→0.00213787 step=3.50471e-05 V=1.001 u1=2.00624 u2=0.996346 u3=0 Iion=-1.36593
DEBUG cell=0 t=0.00210283→0.00213787 step=0.000315424 V=1.001 u1=2.00629 u2=0.996311 u3=0 Iion=-1.36592
PIMPLE: iteration 1
DICPCG:  Solving for Vm, Initial residual = 8.74315e-06, Final residual = 1.48409e-25, No Iterations 3
PIMPLE: iteration 2
DICPCG:  Solving for Vm, Initial residual = 5.8094e-17, Final residual = 5.8094e-17, No Iterations 0
ExecutionTime = 0.01 s  ClockTime = 0 s

Time = 0.00217292

DEBUG cell=0 t=0.00213787→0.00217292 step=3.50471e-05 V=1.00102 u1=2.00629 u2=0.996311 u3=0 Iion=-1.36592
DEBUG cell=0 t=0.00213787→0.00217292 step=0.000315424 V=1.00102 u1=2.00634 u2=0.996276 u3=0 Iion=-1.36591
PIMPLE: iteration 1
DICPCG:  Solving for Vm, Initial residual = 8.74284e-06, Final residual = 1.48884e-25, No Iterations 3
PIMPLE: iteration 2
DICPCG:  Solving for Vm, Initial residual = 4.24653e-17, Final residual = 4.24653e-17, No Iterations 0
ExecutionTime = 0.01 s  ClockTime = 0 s

Time = 0.00220797

DEBUG cell=0 t=0.00217292→0.00220797 step=3.50471e-05 V=1.00104 u1=2.00634 u2=0.996276 u3=0 Iion=-1.36591
DEBUG cell=0 t=0.00217292→0.00220797 step=0.000315424 V=1.00104 u1=2.0064 u2=0.996241 u3=0 Iion=-1.3659
PIMPLE: iteration 1
DICPCG:  Solving for Vm, Initial residual = 8.74254e-06, Final residual = 1.88661e-25, No Iterations 3
PIMPLE: iteration 2
DICPCG:  Solving for Vm, Initial residual = 4.45504e-17, Final residual = 4.45504e-17, No Iterations 0
ExecutionTime = 0.01 s  ClockTime = 0 s

Time = 0.00224301

DEBUG cell=0 t=0.00220797→0.00224301 step=3.50471e-05 V=1.00106 u1=2.0064 u2=0.996241 u3=0 Iion=-1.3659
DEBUG cell=0 t=0.00220797→0.00224301 step=0.000315424 V=1.00106 u1=2.00645 u2=0.996207 u3=0 Iion=-1.36589
PIMPLE: iteration 1
DICPCG:  Solving for Vm, Initial residual = 8.74223e-06, Final residual = 1.57386e-25, No Iterations 3
PIMPLE: iteration 2
DICPCG:  Solving for Vm, Initial residual = 4.75259e-17, Final residual = 4.75259e-17, No Iterations 0
ExecutionTime = 0.01 s  ClockTime = 0 s

Time = 0.00227806

DEBUG cell=0 t=0.00224301→0.00227806 step=3.50471e-05 V=1.00107 u1=2.00645 u2=0.996207 u3=0 Iion=-1.36589
DEBUG cell=0 t=0.00224301→0.00227806 step=0.000315424 V=1.00107 u1=2.0065 u2=0.996172 u3=0 Iion=-1.36587
PIMPLE: iteration 1
DICPCG:  Solving for Vm, Initial residual = 8.74193e-06, Final residual = 1.35381e-25, No Iterations 3
PIMPLE: iteration 2
DICPCG:  Solving for Vm, Initial residual = 4.39045e-17, Final residual = 4.39045e-17, No Iterations 0
ExecutionTime = 0.01 s  ClockTime = 0 s

Time = 0.00231311

DEBUG cell=0 t=0.00227806→0.00231311 step=3.50471e-05 V=1.00109 u1=2.0065 u2=0.996172 u3=0 Iion=-1.36587
DEBUG cell=0 t=0.00227806→0.00231311 step=0.000315424 V=1.00109 u1=2.00655 u2=0.996137 u3=0 Iion=-1.36586
PIMPLE: iteration 1
DICPCG:  Solving for Vm, Initial residual = 8.74162e-06, Final residual = 1.59927e-25, No Iterations 3
PIMPLE: iteration 2
DICPCG:  Solving for Vm, Initial residual = 5.61303e-17, Final residual = 5.61303e-17, No Iterations 0
ExecutionTime = 0.01 s  ClockTime = 0 s

Time = 0.00234816

DEBUG cell=0 t=0.00231311→0.00234816 step=3.50471e-05 V=1.00111 u1=2.00655 u2=0.996137 u3=0 Iion=-1.36586
DEBUG cell=0 t=0.00231311→0.00234816 step=0.000315424 V=1.00111 u1=2.00661 u2=0.996102 u3=0 Iion=-1.36585
PIMPLE: iteration 1
DICPCG:  Solving for Vm, Initial residual = 8.74132e-06, Final residual = 1.52601e-25, No Iterations 3
PIMPLE: iteration 2
DICPCG:  Solving for Vm, Initial residual = 4.45219e-17, Final residual = 4.45219e-17, No Iterations 0
ExecutionTime = 0.01 s  ClockTime = 0 s

Time = 0.0023832

DEBUG cell=0 t=0.00234816→0.0023832 step=3.50471e-05 V=1.00113 u1=2.00661 u2=0.996102 u3=0 Iion=-1.36585
DEBUG cell=0 t=0.00234816→0.0023832 step=0.000315424 V=1.00113 u1=2.00666 u2=0.996067 u3=0 Iion=-1.36584
PIMPLE: iteration 1
DICPCG:  Solving for Vm, Initial residual = 8.74101e-06, Final residual = 2.0464e-25, No Iterations 3
PIMPLE: iteration 2
DICPCG:  Solving for Vm, Initial residual = 4.26643e-17, Final residual = 4.26643e-17, No Iterations 0
ExecutionTime = 0.01 s  ClockTime = 0 s

Time = 0.00241825

DEBUG cell=0 t=0.0023832→0.00241825 step=3.50471e-05 V=1.00114 u1=2.00666 u2=0.996067 u3=0 Iion=-1.36584
DEBUG cell=0 t=0.0023832→0.00241825 step=0.000315424 V=1.00114 u1=2.00671 u2=0.996032 u3=0 Iion=-1.36583
PIMPLE: iteration 1
DICPCG:  Solving for Vm, Initial residual = 8.74071e-06, Final residual = 1.75157e-25, No Iterations 3
PIMPLE: iteration 2
DICPCG:  Solving for Vm, Initial residual = 5.64665e-17, Final residual = 5.64665e-17, No Iterations 0
ExecutionTime = 0.01 s  ClockTime = 0 s

Time = 0.0024533

DEBUG cell=0 t=0.00241825→0.0024533 step=3.50471e-05 V=1.00116 u1=2.00671 u2=0.996032 u3=0 Iion=-1.36583
DEBUG cell=0 t=0.00241825→0.0024533 step=0.000315424 V=1.00116 u1=2.00676 u2=0.995998 u3=0 Iion=-1.36582
PIMPLE: iteration 1
DICPCG:  Solving for Vm, Initial residual = 8.7404e-06, Final residual = 1.39418e-25, No Iterations 3
PIMPLE: iteration 2
DICPCG:  Solving for Vm, Initial residual = 5.40746e-17, Final residual = 5.40746e-17, No Iterations 0
ExecutionTime = 0.01 s  ClockTime = 0 s

Time = 0.00248834

DEBUG cell=0 t=0.0024533→0.00248834 step=3.50471e-05 V=1.00118 u1=2.00676 u2=0.995998 u3=0 Iion=-1.36582
DEBUG cell=0 t=0.0024533→0.00248834 step=0.000315424 V=1.00118 u1=2.00682 u2=0.995963 u3=0 Iion=-1.36581
PIMPLE: iteration 1
DICPCG:  Solving for Vm, Initial residual = 8.74009e-06, Final residual = 1.55183e-25, No Iterations 3
PIMPLE: iteration 2
DICPCG:  Solving for Vm, Initial residual = 4.91139e-17, Final residual = 4.91139e-17, No Iterations 0
ExecutionTime = 0.01 s  ClockTime = 0 s

Time = 0.00252339

DEBUG cell=0 t=0.00248834→0.00252339 step=3.50471e-05 V=1.0012 u1=2.00682 u2=0.995963 u3=0 Iion=-1.36581
DEBUG cell=0 t=0.00248834→0.00252339 step=0.000315424 V=1.0012 u1=2.00687 u2=0.995928 u3=0 Iion=-1.3658
PIMPLE: iteration 1
DICPCG:  Solving for Vm, Initial residual = 8.73979e-06, Final residual = 1.67049e-25, No Iterations 3
PIMPLE: iteration 2
DICPCG:  Solving for Vm, Initial residual = 4.92402e-17, Final residual = 4.92402e-17, No Iterations 0
ExecutionTime = 0.01 s  ClockTime = 0 s

Time = 0.00255844

DEBUG cell=0 t=0.00252339→0.00255844 step=3.50471e-05 V=1.00121 u1=2.00687 u2=0.995928 u3=0 Iion=-1.3658
DEBUG cell=0 t=0.00252339→0.00255844 step=0.000315424 V=1.00121 u1=2.00692 u2=0.995893 u3=0 Iion=-1.36579
PIMPLE: iteration 1
DICPCG:  Solving for Vm, Initial residual = 8.73948e-06, Final residual = 1.77628e-25, No Iterations 3
PIMPLE: iteration 2
DICPCG:  Solving for Vm, Initial residual = 4.58398e-17, Final residual = 4.58398e-17, No Iterations 0
ExecutionTime = 0.01 s  ClockTime = 0 s

Time = 0.00259349

DEBUG cell=0 t=0.00255844→0.00259349 step=3.50471e-05 V=1.00123 u1=2.00692 u2=0.995893 u3=0 Iion=-1.36579
DEBUG cell=0 t=0.00255844→0.00259349 step=0.000315424 V=1.00123 u1=2.00697 u2=0.995858 u3=0 Iion=-1.36578
PIMPLE: iteration 1
DICPCG:  Solving for Vm, Initial residual = 8.73918e-06, Final residual = 1.59503e-25, No Iterations 3
PIMPLE: iteration 2
DICPCG:  Solving for Vm, Initial residual = 4.88062e-17, Final residual = 4.88062e-17, No Iterations 0
ExecutionTime = 0.01 s  ClockTime = 0 s

Time = 0.00262853

DEBUG cell=0 t=0.00259349→0.00262853 step=3.50471e-05 V=1.00125 u1=2.00697 u2=0.995858 u3=0 Iion=-1.36578
DEBUG cell=0 t=0.00259349→0.00262853 step=0.000315424 V=1.00125 u1=2.00703 u2=0.995824 u3=0 Iion=-1.36576
PIMPLE: iteration 1
DICPCG:  Solving for Vm, Initial residual = 8.73887e-06, Final residual = 1.55646e-25, No Iterations 3
PIMPLE: iteration 2
DICPCG:  Solving for Vm, Initial residual = 4.68046e-17, Final residual = 4.68046e-17, No Iterations 0
ExecutionTime = 0.01 s  ClockTime = 0 s

Time = 0.00266358

DEBUG cell=0 t=0.00262853→0.00266358 step=3.50471e-05 V=1.00127 u1=2.00703 u2=0.995824 u3=0 Iion=-1.36576
DEBUG cell=0 t=0.00262853→0.00266358 step=0.000315424 V=1.00127 u1=2.00708 u2=0.995789 u3=0 Iion=-1.36575
PIMPLE: iteration 1
DICPCG:  Solving for Vm, Initial residual = 8.73857e-06, Final residual = 1.78198e-25, No Iterations 3
PIMPLE: iteration 2
DICPCG:  Solving for Vm, Initial residual = 5.99014e-17, Final residual = 5.99014e-17, No Iterations 0
ExecutionTime = 0.01 s  ClockTime = 0 s

Time = 0.00269863

DEBUG cell=0 t=0.00266358→0.00269863 step=3.50471e-05 V=1.00128 u1=2.00708 u2=0.995789 u3=0 Iion=-1.36575
DEBUG cell=0 t=0.00266358→0.00269863 step=0.000315424 V=1.00128 u1=2.00713 u2=0.995754 u3=0 Iion=-1.36574
PIMPLE: iteration 1
DICPCG:  Solving for Vm, Initial residual = 8.73826e-06, Final residual = 1.66892e-25, No Iterations 3
PIMPLE: iteration 2
DICPCG:  Solving for Vm, Initial residual = 5.02617e-17, Final residual = 5.02617e-17, No Iterations 0
ExecutionTime = 0.01 s  ClockTime = 0 s

Time = 0.00273367

DEBUG cell=0 t=0.00269863→0.00273367 step=3.50471e-05 V=1.0013 u1=2.00713 u2=0.995754 u3=0 Iion=-1.36574
DEBUG cell=0 t=0.00269863→0.00273367 step=0.000315424 V=1.0013 u1=2.00718 u2=0.995719 u3=0 Iion=-1.36573
PIMPLE: iteration 1
DICPCG:  Solving for Vm, Initial residual = 8.73796e-06, Final residual = 2.62426e-25, No Iterations 3
PIMPLE: iteration 2
DICPCG:  Solving for Vm, Initial residual = 4.26653e-17, Final residual = 4.26653e-17, No Iterations 0
ExecutionTime = 0.01 s  ClockTime = 0 s

Time = 0.00276872

DEBUG cell=0 t=0.00273367→0.00276872 step=3.50471e-05 V=1.00132 u1=2.00718 u2=0.995719 u3=0 Iion=-1.36573
DEBUG cell=0 t=0.00273367→0.00276872 step=0.000315424 V=1.00132 u1=2.00724 u2=0.995684 u3=0 Iion=-1.36572
PIMPLE: iteration 1
DICPCG:  Solving for Vm, Initial residual = 8.73765e-06, Final residual = 1.6505e-25, No Iterations 3
PIMPLE: iteration 2
DICPCG:  Solving for Vm, Initial residual = 3.90873e-17, Final residual = 3.90873e-17, No Iterations 0
ExecutionTime = 0.01 s  ClockTime = 0 s

Time = 0.00280377

DEBUG cell=0 t=0.00276872→0.00280377 step=3.50471e-05 V=1.00134 u1=2.00724 u2=0.995684 u3=0 Iion=-1.36572
DEBUG cell=0 t=0.00276872→0.00280377 step=0.000315424 V=1.00134 u1=2.00729 u2=0.99565 u3=0 Iion=-1.36571
PIMPLE: iteration 1
DICPCG:  Solving for Vm, Initial residual = 8.73734e-06, Final residual = 1.48837e-25, No Iterations 3
PIMPLE: iteration 2
DICPCG:  Solving for Vm, Initial residual = 4.20959e-17, Final residual = 4.20959e-17, No Iterations 0
ExecutionTime = 0.01 s  ClockTime = 0 s

Time = 0.00283882

DEBUG cell=0 t=0.00280377→0.00283882 step=3.50471e-05 V=1.00135 u1=2.00729 u2=0.99565 u3=0 Iion=-1.36571
DEBUG cell=0 t=0.00280377→0.00283882 step=0.000315424 V=1.00135 u1=2.00734 u2=0.995615 u3=0 Iion=-1.3657
PIMPLE: iteration 1
DICPCG:  Solving for Vm, Initial residual = 8.73704e-06, Final residual = 1.39201e-25, No Iterations 3
PIMPLE: iteration 2
DICPCG:  Solving for Vm, Initial residual = 4.76474e-17, Final residual = 4.76474e-17, No Iterations 0
ExecutionTime = 0.01 s  ClockTime = 0 s

Time = 0.00287386

DEBUG cell=0 t=0.00283882→0.00287386 step=3.50471e-05 V=1.00137 u1=2.00734 u2=0.995615 u3=0 Iion=-1.3657
DEBUG cell=0 t=0.00283882→0.00287386 step=0.000315424 V=1.00137 u1=2.0074 u2=0.99558 u3=0 Iion=-1.36569
PIMPLE: iteration 1
DICPCG:  Solving for Vm, Initial residual = 8.73673e-06, Final residual = 1.68122e-25, No Iterations 3
PIMPLE: iteration 2
DICPCG:  Solving for Vm, Initial residual = 4.4756e-17, Final residual = 4.4756e-17, No Iterations 0
ExecutionTime = 0.01 s  ClockTime = 0 s

Time = 0.00290891

DEBUG cell=0 t=0.00287386→0.00290891 step=3.50471e-05 V=1.00139 u1=2.0074 u2=0.99558 u3=0 Iion=-1.36569
DEBUG cell=0 t=0.00287386→0.00290891 step=0.000315424 V=1.00139 u1=2.00745 u2=0.995545 u3=0 Iion=-1.36568
PIMPLE: iteration 1
DICPCG:  Solving for Vm, Initial residual = 8.73643e-06, Final residual = 3.59924e-25, No Iterations 3
PIMPLE: iteration 2
DICPCG:  Solving for Vm, Initial residual = 4.64251e-17, Final residual = 4.64251e-17, No Iterations 0
ExecutionTime = 0.01 s  ClockTime = 0 s

Time = 0.00294396

DEBUG cell=0 t=0.00290891→0.00294396 step=3.50471e-05 V=1.00141 u1=2.00745 u2=0.995545 u3=0 Iion=-1.36568
DEBUG cell=0 t=0.00290891→0.00294396 step=0.000315424 V=1.00141 u1=2.0075 u2=0.99551 u3=0 Iion=-1.36566
PIMPLE: iteration 1
DICPCG:  Solving for Vm, Initial residual = 8.73612e-06, Final residual = 1.19021e-25, No Iterations 3
PIMPLE: iteration 2
DICPCG:  Solving for Vm, Initial residual = 4.59835e-17, Final residual = 4.59835e-17, No Iterations 0
ExecutionTime = 0.02 s  ClockTime = 0 s

Time = 0.002979

DEBUG cell=0 t=0.00294396→0.002979 step=3.50471e-05 V=1.00142 u1=2.0075 u2=0.99551 u3=0 Iion=-1.36566
DEBUG cell=0 t=0.00294396→0.002979 step=0.000315424 V=1.00142 u1=2.00755 u2=0.995476 u3=0 Iion=-1.36565
PIMPLE: iteration 1
DICPCG:  Solving for Vm, Initial residual = 8.73582e-06, Final residual = 1.92273e-25, No Iterations 3
PIMPLE: iteration 2
DICPCG:  Solving for Vm, Initial residual = 4.74576e-17, Final residual = 4.74576e-17, No Iterations 0
ExecutionTime = 0.02 s  ClockTime = 0 s

Time = 0.00301405

DEBUG cell=0 t=0.002979→0.00301405 step=3.50471e-05 V=1.00144 u1=2.00755 u2=0.995476 u3=0 Iion=-1.36565
DEBUG cell=0 t=0.002979→0.00301405 step=0.000315424 V=1.00144 u1=2.00761 u2=0.995441 u3=0 Iion=-1.36564
PIMPLE: iteration 1
DICPCG:  Solving for Vm, Initial residual = 8.73551e-06, Final residual = 1.42345e-25, No Iterations 3
PIMPLE: iteration 2
DICPCG:  Solving for Vm, Initial residual = 4.38121e-17, Final residual = 4.38121e-17, No Iterations 0
ExecutionTime = 0.02 s  ClockTime = 0 s

Time = 0.0030491

DEBUG cell=0 t=0.00301405→0.0030491 step=3.50471e-05 V=1.00146 u1=2.00761 u2=0.995441 u3=0 Iion=-1.36564
DEBUG cell=0 t=0.00301405→0.0030491 step=0.000315424 V=1.00146 u1=2.00766 u2=0.995406 u3=0 Iion=-1.36563
PIMPLE: iteration 1
DICPCG:  Solving for Vm, Initial residual = 8.73521e-06, Final residual = 1.33041e-25, No Iterations 3
PIMPLE: iteration 2
DICPCG:  Solving for Vm, Initial residual = 4.52522e-17, Final residual = 4.52522e-17, No Iterations 0
ExecutionTime = 0.02 s  ClockTime = 0 s

Time = 0.00308414

DEBUG cell=0 t=0.0030491→0.00308414 step=3.50471e-05 V=1.00148 u1=2.00766 u2=0.995406 u3=0 Iion=-1.36563
DEBUG cell=0 t=0.0030491→0.00308414 step=0.000315424 V=1.00148 u1=2.00771 u2=0.995371 u3=0 Iion=-1.36562
PIMPLE: iteration 1
DICPCG:  Solving for Vm, Initial residual = 8.7349e-06, Final residual = 1.43459e-25, No Iterations 3
PIMPLE: iteration 2
DICPCG:  Solving for Vm, Initial residual = 4.38106e-17, Final residual = 4.38106e-17, No Iterations 0
ExecutionTime = 0.02 s  ClockTime = 0 s

Time = 0.00311919

DEBUG cell=0 t=0.00308414→0.00311919 step=3.50471e-05 V=1.00149 u1=2.00771 u2=0.995371 u3=0 Iion=-1.36562
DEBUG cell=0 t=0.00308414→0.00311919 step=0.000315424 V=1.00149 u1=2.00776 u2=0.995336 u3=0 Iion=-1.36561
PIMPLE: iteration 1
DICPCG:  Solving for Vm, Initial residual = 8.7346e-06, Final residual = 1.55226e-25, No Iterations 3
PIMPLE: iteration 2
DICPCG:  Solving for Vm, Initial residual = 5.61247e-17, Final residual = 5.61247e-17, No Iterations 0
ExecutionTime = 0.02 s  ClockTime = 0 s

Time = 0.00315424

DEBUG cell=0 t=0.00311919→0.00315424 step=3.50471e-05 V=1.00151 u1=2.00776 u2=0.995336 u3=0 Iion=-1.36561
DEBUG cell=0 t=0.00311919→0.00315424 step=0.000315424 V=1.00151 u1=2.00782 u2=0.995302 u3=0 Iion=-1.3656
PIMPLE: iteration 1
DICPCG:  Solving for Vm, Initial residual = 8.73429e-06, Final residual = 1.48299e-25, No Iterations 3
PIMPLE: iteration 2
DICPCG:  Solving for Vm, Initial residual = 5.30048e-17, Final residual = 5.30048e-17, No Iterations 0
ExecutionTime = 0.02 s  ClockTime = 0 s

Time = 0.00318929

DEBUG cell=0 t=0.00315424→0.00318929 step=3.50471e-05 V=1.00153 u1=2.00782 u2=0.995302 u3=0 Iion=-1.3656
DEBUG cell=0 t=0.00315424→0.00318929 step=0.000315424 V=1.00153 u1=2.00787 u2=0.995267 u3=0 Iion=-1.36559
PIMPLE: iteration 1
DICPCG:  Solving for Vm, Initial residual = 8.73399e-06, Final residual = 2.56003e-25, No Iterations 3
PIMPLE: iteration 2
DICPCG:  Solving for Vm, Initial residual = 4.72407e-17, Final residual = 4.72407e-17, No Iterations 0
ExecutionTime = 0.02 s  ClockTime = 0 s

Time = 0.00322433

DEBUG cell=0 t=0.00318929→0.00322433 step=3.50471e-05 V=1.00155 u1=2.00787 u2=0.995267 u3=0 Iion=-1.36559
DEBUG cell=0 t=0.00318929→0.00322433 step=0.000315424 V=1.00155 u1=2.00792 u2=0.995232 u3=0 Iion=-1.36558
PIMPLE: iteration 1
DICPCG:  Solving for Vm, Initial residual = 8.73368e-06, Final residual = 1.5461e-25, No Iterations 3
PIMPLE: iteration 2
DICPCG:  Solving for Vm, Initial residual = 4.51974e-17, Final residual = 4.51974e-17, No Iterations 0
ExecutionTime = 0.02 s  ClockTime = 0 s

Time = 0.00325938

DEBUG cell=0 t=0.00322433→0.00325938 step=3.50471e-05 V=1.00156 u1=2.00792 u2=0.995232 u3=0 Iion=-1.36558
DEBUG cell=0 t=0.00322433→0.00325938 step=0.000315424 V=1.00156 u1=2.00797 u2=0.995197 u3=0 Iion=-1.36557
PIMPLE: iteration 1
DICPCG:  Solving for Vm, Initial residual = 8.73338e-06, Final residual = 1.93966e-25, No Iterations 3
PIMPLE: iteration 2
DICPCG:  Solving for Vm, Initial residual = 5.28325e-17, Final residual = 5.28325e-17, No Iterations 0
ExecutionTime = 0.02 s  ClockTime = 0 s

Time = 0.00329443

DEBUG cell=0 t=0.00325938→0.00329443 step=3.50471e-05 V=1.00158 u1=2.00797 u2=0.995197 u3=0 Iion=-1.36557
DEBUG cell=0 t=0.00325938→0.00329443 step=0.000315424 V=1.00158 u1=2.00803 u2=0.995163 u3=0 Iion=-1.36555
PIMPLE: iteration 1
DICPCG:  Solving for Vm, Initial residual = 8.73307e-06, Final residual = 1.43934e-25, No Iterations 3
PIMPLE: iteration 2
DICPCG:  Solving for Vm, Initial residual = 4.00177e-17, Final residual = 4.00177e-17, No Iterations 0
ExecutionTime = 0.02 s  ClockTime = 0 s

Time = 0.00332947

DEBUG cell=0 t=0.00329443→0.00332947 step=3.50471e-05 V=1.0016 u1=2.00803 u2=0.995163 u3=0 Iion=-1.36555
DEBUG cell=0 t=0.00329443→0.00332947 step=0.000315424 V=1.0016 u1=2.00808 u2=0.995128 u3=0 Iion=-1.36554
PIMPLE: iteration 1
DICPCG:  Solving for Vm, Initial residual = 8.73277e-06, Final residual = 1.67709e-25, No Iterations 3
PIMPLE: iteration 2
DICPCG:  Solving for Vm, Initial residual = 4.56527e-17, Final residual = 4.56527e-17, No Iterations 0
ExecutionTime = 0.02 s  ClockTime = 0 s

Time = 0.00336452

DEBUG cell=0 t=0.00332947→0.00336452 step=3.50471e-05 V=1.00162 u1=2.00808 u2=0.995128 u3=0 Iion=-1.36554
DEBUG cell=0 t=0.00332947→0.00336452 step=0.000315424 V=1.00162 u1=2.00813 u2=0.995093 u3=0 Iion=-1.36553
PIMPLE: iteration 1
DICPCG:  Solving for Vm, Initial residual = 8.73246e-06, Final residual = 1.6181e-25, No Iterations 3
PIMPLE: iteration 2
DICPCG:  Solving for Vm, Initial residual = 4.10672e-17, Final residual = 4.10672e-17, No Iterations 0
ExecutionTime = 0.02 s  ClockTime = 0 s

Time = 0.00339957

DEBUG cell=0 t=0.00336452→0.00339957 step=3.50471e-05 V=1.00163 u1=2.00813 u2=0.995093 u3=0 Iion=-1.36553
DEBUG cell=0 t=0.00336452→0.00339957 step=0.000315424 V=1.00163 u1=2.00819 u2=0.995058 u3=0 Iion=-1.36552
PIMPLE: iteration 1
DICPCG:  Solving for Vm, Initial residual = 8.73216e-06, Final residual = 1.57441e-25, No Iterations 3
PIMPLE: iteration 2
DICPCG:  Solving for Vm, Initial residual = 4.82357e-17, Final residual = 4.82357e-17, No Iterations 0
ExecutionTime = 0.02 s  ClockTime = 0 s

Time = 0.00343462

DEBUG cell=0 t=0.00339957→0.00343462 step=3.50471e-05 V=1.00165 u1=2.00819 u2=0.995058 u3=0 Iion=-1.36552
DEBUG cell=0 t=0.00339957→0.00343462 step=0.000315424 V=1.00165 u1=2.00824 u2=0.995024 u3=0 Iion=-1.36551
PIMPLE: iteration 1
DICPCG:  Solving for Vm, Initial residual = 8.73185e-06, Final residual = 1.92969e-25, No Iterations 3
PIMPLE: iteration 2
DICPCG:  Solving for Vm, Initial residual = 4.15827e-17, Final residual = 4.15827e-17, No Iterations 0
ExecutionTime = 0.02 s  ClockTime = 0 s

Time = 0.00346966

DEBUG cell=0 t=0.00343462→0.00346966 step=3.50471e-05 V=1.00167 u1=2.00824 u2=0.995024 u3=0 Iion=-1.36551
DEBUG cell=0 t=0.00343462→0.00346966 step=0.000315424 V=1.00167 u1=2.00829 u2=0.994989 u3=0 Iion=-1.3655
PIMPLE: iteration 1
DICPCG:  Solving for Vm, Initial residual = 8.73155e-06, Final residual = 1.85144e-25, No Iterations 3
PIMPLE: iteration 2
DICPCG:  Solving for Vm, Initial residual = 4.67765e-17, Final residual = 4.67765e-17, No Iterations 0
ExecutionTime = 0.02 s  ClockTime = 0 s

Time = 0.00350471

DEBUG cell=0 t=0.00346966→0.00350471 step=3.50471e-05 V=1.00169 u1=2.00829 u2=0.994989 u3=0 Iion=-1.3655
DEBUG cell=0 t=0.00346966→0.00350471 step=0.000315424 V=1.00169 u1=2.00834 u2=0.994954 u3=0 Iion=-1.36549
PIMPLE: iteration 1
DICPCG:  Solving for Vm, Initial residual = 8.73124e-06, Final residual = 1.31891e-25, No Iterations 3
PIMPLE: iteration 2
DICPCG:  Solving for Vm, Initial residual = 4.39285e-17, Final residual = 4.39285e-17, No Iterations 0
ExecutionTime = 0.02 s  ClockTime = 0 s

Time = 0.00353976

DEBUG cell=0 t=0.00350471→0.00353976 step=3.50471e-05 V=1.0017 u1=2.00834 u2=0.994954 u3=0 Iion=-1.36549
DEBUG cell=0 t=0.00350471→0.00353976 step=0.000315424 V=1.0017 u1=2.0084 u2=0.994919 u3=0 Iion=-1.36548
PIMPLE: iteration 1
DICPCG:  Solving for Vm, Initial residual = 8.73094e-06, Final residual = 1.31632e-25, No Iterations 3
PIMPLE: iteration 2
DICPCG:  Solving for Vm, Initial residual = 4.54445e-17, Final residual = 4.54445e-17, No Iterations 0
ExecutionTime = 0.02 s  ClockTime = 0 s

Time = 0.0035748

DEBUG cell=0 t=0.00353976→0.0035748 step=3.50471e-05 V=1.00172 u1=2.0084 u2=0.994919 u3=0 Iion=-1.36548
DEBUG cell=0 t=0.00353976→0.0035748 step=0.000315424 V=1.00172 u1=2.00845 u2=0.994885 u3=0 Iion=-1.36547
PIMPLE: iteration 1
DICPCG:  Solving for Vm, Initial residual = 8.73063e-06, Final residual = 2.47058e-25, No Iterations 3
PIMPLE: iteration 2
DICPCG:  Solving for Vm, Initial residual = 4.76977e-17, Final residual = 4.76977e-17, No Iterations 0
ExecutionTime = 0.02 s  ClockTime = 0 s

Time = 0.00360985

DEBUG cell=0 t=0.0035748→0.00360985 step=3.50471e-05 V=1.00174 u1=2.00845 u2=0.994885 u3=0 Iion=-1.36547
DEBUG cell=0 t=0.0035748→0.00360985 step=0.000315424 V=1.00174 u1=2.0085 u2=0.99485 u3=0 Iion=-1.36546
PIMPLE: iteration 1
DICPCG:  Solving for Vm, Initial residual = 8.73033e-06, Final residual = 1.5479e-25, No Iterations 3
PIMPLE: iteration 2
DICPCG:  Solving for Vm, Initial residual = 4.74765e-17, Final residual = 4.74765e-17, No Iterations 0
ExecutionTime = 0.02 s  ClockTime = 0 s

Time = 0.0036449

DEBUG cell=0 t=0.00360985→0.0036449 step=3.50471e-05 V=1.00176 u1=2.0085 u2=0.99485 u3=0 Iion=-1.36546
DEBUG cell=0 t=0.00360985→0.0036449 step=0.000315424 V=1.00176 u1=2.00855 u2=0.994815 u3=0 Iion=-1.36544
PIMPLE: iteration 1
DICPCG:  Solving for Vm, Initial residual = 8.73002e-06, Final residual = 1.27969e-25, No Iterations 3
PIMPLE: iteration 2
DICPCG:  Solving for Vm, Initial residual = 5.39239e-17, Final residual = 5.39239e-17, No Iterations 0
ExecutionTime = 0.02 s  ClockTime = 0 s

Time = 0.00367995

DEBUG cell=0 t=0.0036449→0.00367995 step=3.50471e-05 V=1.00177 u1=2.00855 u2=0.994815 u3=0 Iion=-1.36544
DEBUG cell=0 t=0.0036449→0.00367995 step=0.000315424 V=1.00177 u1=2.00861 u2=0.99478 u3=0 Iion=-1.36543
PIMPLE: iteration 1
DICPCG:  Solving for Vm, Initial residual = 8.72972e-06, Final residual = 1.56807e-25, No Iterations 3
PIMPLE: iteration 2
DICPCG:  Solving for Vm, Initial residual = 4.41958e-17, Final residual = 4.41958e-17, No Iterations 0
ExecutionTime = 0.02 s  ClockTime = 0 s

Time = 0.00371499

DEBUG cell=0 t=0.00367995→0.00371499 step=3.50471e-05 V=1.00179 u1=2.00861 u2=0.99478 u3=0 Iion=-1.36543
DEBUG cell=0 t=0.00367995→0.00371499 step=0.000315424 V=1.00179 u1=2.00866 u2=0.994746 u3=0 Iion=-1.36542
PIMPLE: iteration 1
DICPCG:  Solving for Vm, Initial residual = 8.72941e-06, Final residual = 1.85906e-25, No Iterations 3
PIMPLE: iteration 2
DICPCG:  Solving for Vm, Initial residual = 4.97024e-17, Final residual = 4.97024e-17, No Iterations 0
ExecutionTime = 0.02 s  ClockTime = 0 s

Time = 0.00375004

DEBUG cell=0 t=0.00371499→0.00375004 step=3.50471e-05 V=1.00181 u1=2.00866 u2=0.994746 u3=0 Iion=-1.36542
DEBUG cell=0 t=0.00371499→0.00375004 step=0.000315424 V=1.00181 u1=2.00871 u2=0.994711 u3=0 Iion=-1.36541
PIMPLE: iteration 1
DICPCG:  Solving for Vm, Initial residual = 8.72911e-06, Final residual = 1.31289e-25, No Iterations 3
PIMPLE: iteration 2
DICPCG:  Solving for Vm, Initial residual = 3.47979e-17, Final residual = 3.47979e-17, No Iterations 0
ExecutionTime = 0.02 s  ClockTime = 0 s

Time = 0.00378509

DEBUG cell=0 t=0.00375004→0.00378509 step=3.50471e-05 V=1.00182 u1=2.00871 u2=0.994711 u3=0 Iion=-1.36541
DEBUG cell=0 t=0.00375004→0.00378509 step=0.000315424 V=1.00182 u1=2.00876 u2=0.994676 u3=0 Iion=-1.3654
PIMPLE: iteration 1
DICPCG:  Solving for Vm, Initial residual = 8.7288e-06, Final residual = 2.33325e-25, No Iterations 3
PIMPLE: iteration 2
DICPCG:  Solving for Vm, Initial residual = 4.81841e-17, Final residual = 4.81841e-17, No Iterations 0
ExecutionTime = 0.02 s  ClockTime = 0 s

Time = 0.00382013

DEBUG cell=0 t=0.00378509→0.00382013 step=3.50471e-05 V=1.00184 u1=2.00876 u2=0.994676 u3=0 Iion=-1.3654
DEBUG cell=0 t=0.00378509→0.00382013 step=0.000315424 V=1.00184 u1=2.00882 u2=0.994641 u3=0 Iion=-1.36539
PIMPLE: iteration 1
DICPCG:  Solving for Vm, Initial residual = 8.7285e-06, Final residual = 2.11083e-25, No Iterations 3
PIMPLE: iteration 2
DICPCG:  Solving for Vm, Initial residual = 4.85984e-17, Final residual = 4.85984e-17, No Iterations 0
ExecutionTime = 0.02 s  ClockTime = 0 s

Time = 0.00385518

DEBUG cell=0 t=0.00382013→0.00385518 step=3.50471e-05 V=1.00186 u1=2.00882 u2=0.994641 u3=0 Iion=-1.36539
DEBUG cell=0 t=0.00382013→0.00385518 step=0.000315424 V=1.00186 u1=2.00887 u2=0.994607 u3=0 Iion=-1.36538
PIMPLE: iteration 1
DICPCG:  Solving for Vm, Initial residual = 8.72819e-06, Final residual = 1.31399e-25, No Iterations 3
PIMPLE: iteration 2
DICPCG:  Solving for Vm, Initial residual = 4.25229e-17, Final residual = 4.25229e-17, No Iterations 0
ExecutionTime = 0.02 s  ClockTime = 0 s

Time = 0.00389023

DEBUG cell=0 t=0.00385518→0.00389023 step=3.50471e-05 V=1.00188 u1=2.00887 u2=0.994607 u3=0 Iion=-1.36538
DEBUG cell=0 t=0.00385518→0.00389023 step=0.000315424 V=1.00188 u1=2.00892 u2=0.994572 u3=0 Iion=-1.36537
PIMPLE: iteration 1
DICPCG:  Solving for Vm, Initial residual = 8.72789e-06, Final residual = 1.91435e-25, No Iterations 3
PIMPLE: iteration 2
DICPCG:  Solving for Vm, Initial residual = 4.62669e-17, Final residual = 4.62669e-17, No Iterations 0
ExecutionTime = 0.02 s  ClockTime = 0 s

Time = 0.00392528

DEBUG cell=0 t=0.00389023→0.00392528 step=3.50471e-05 V=1.00189 u1=2.00892 u2=0.994572 u3=0 Iion=-1.36537
DEBUG cell=0 t=0.00389023→0.00392528 step=0.000315424 V=1.00189 u1=2.00898 u2=0.994537 u3=0 Iion=-1.36536
PIMPLE: iteration 1
DICPCG:  Solving for Vm, Initial residual = 8.72758e-06, Final residual = 1.9507e-25, No Iterations 3
PIMPLE: iteration 2
DICPCG:  Solving for Vm, Initial residual = 5.24168e-17, Final residual = 5.24168e-17, No Iterations 0
ExecutionTime = 0.02 s  ClockTime = 0 s

Time = 0.00396032

DEBUG cell=0 t=0.00392528→0.00396032 step=3.50471e-05 V=1.00191 u1=2.00898 u2=0.994537 u3=0 Iion=-1.36536
DEBUG cell=0 t=0.00392528→0.00396032 step=0.000315424 V=1.00191 u1=2.00903 u2=0.994503 u3=0 Iion=-1.36535
PIMPLE: iteration 1
DICPCG:  Solving for Vm, Initial residual = 8.72728e-06, Final residual = 1.46834e-25, No Iterations 3
PIMPLE: iteration 2
DICPCG:  Solving for Vm, Initial residual = 4.1665e-17, Final residual = 4.1665e-17, No Iterations 0
ExecutionTime = 0.02 s  ClockTime = 0 s

Time = 0.00399537

DEBUG cell=0 t=0.00396032→0.00399537 step=3.50471e-05 V=1.00193 u1=2.00903 u2=0.994503 u3=0 Iion=-1.36535
DEBUG cell=0 t=0.00396032→0.00399537 step=0.000315424 V=1.00193 u1=2.00908 u2=0.994468 u3=0 Iion=-1.36533
PIMPLE: iteration 1
DICPCG:  Solving for Vm, Initial residual = 8.72697e-06, Final residual = 1.6103e-25, No Iterations 3
PIMPLE: iteration 2
DICPCG:  Solving for Vm, Initial residual = 4.15711e-17, Final residual = 4.15711e-17, No Iterations 0
ExecutionTime = 0.02 s  ClockTime = 0 s

Time = 0.00403042

DEBUG cell=0 t=0.00399537→0.00403042 step=3.50471e-05 V=1.00195 u1=2.00908 u2=0.994468 u3=0 Iion=-1.36533
DEBUG cell=0 t=0.00399537→0.00403042 step=0.000315424 V=1.00195 u1=2.00913 u2=0.994433 u3=0 Iion=-1.36532
PIMPLE: iteration 1
DICPCG:  Solving for Vm, Initial residual = 8.72667e-06, Final residual = 1.31536e-25, No Iterations 3
PIMPLE: iteration 2
DICPCG:  Solving for Vm, Initial residual = 5.13212e-17, Final residual = 5.13212e-17, No Iterations 0
ExecutionTime = 0.02 s  ClockTime = 0 s

Time = 0.00406546

DEBUG cell=0 t=0.00403042→0.00406546 step=3.50471e-05 V=1.00196 u1=2.00913 u2=0.994433 u3=0 Iion=-1.36532
DEBUG cell=0 t=0.00403042→0.00406546 step=0.000315424 V=1.00196 u1=2.00919 u2=0.994398 u3=0 Iion=-1.36531
PIMPLE: iteration 1
DICPCG:  Solving for Vm, Initial residual = 8.72637e-06, Final residual = 1.74542e-25, No Iterations 3
PIMPLE: iteration 2
DICPCG:  Solving for Vm, Initial residual = 4.61188e-17, Final residual = 4.61188e-17, No Iterations 0
ExecutionTime = 0.02 s  ClockTime = 0 s

Time = 0.00410051

DEBUG cell=0 t=0.00406546→0.00410051 step=3.50471e-05 V=1.00198 u1=2.00919 u2=0.994398 u3=0 Iion=-1.36531
DEBUG cell=0 t=0.00406546→0.00410051 step=0.000315424 V=1.00198 u1=2.00924 u2=0.994364 u3=0 Iion=-1.3653
PIMPLE: iteration 1
DICPCG:  Solving for Vm, Initial residual = 8.72606e-06, Final residual = 2.15292e-25, No Iterations 3
PIMPLE: iteration 2
DICPCG:  Solving for Vm, Initial residual = 4.83883e-17, Final residual = 4.83883e-17, No Iterations 0
ExecutionTime = 0.02 s  ClockTime = 0 s

Time = 0.00413556

DEBUG cell=0 t=0.00410051→0.00413556 step=3.50471e-05 V=1.002 u1=2.00924 u2=0.994364 u3=0 Iion=-1.3653
DEBUG cell=0 t=0.00410051→0.00413556 step=0.000315424 V=1.002 u1=2.00929 u2=0.994329 u3=0 Iion=-1.36529
PIMPLE: iteration 1
DICPCG:  Solving for Vm, Initial residual = 8.72576e-06, Final residual = 1.59944e-25, No Iterations 3
PIMPLE: iteration 2
DICPCG:  Solving for Vm, Initial residual = 4.68711e-17, Final residual = 4.68711e-17, No Iterations 0
ExecutionTime = 0.02 s  ClockTime = 0 s

Time = 0.0041706

DEBUG cell=0 t=0.00413556→0.0041706 step=3.50471e-05 V=1.00202 u1=2.00929 u2=0.994329 u3=0 Iion=-1.36529
DEBUG cell=0 t=0.00413556→0.0041706 step=0.000315424 V=1.00202 u1=2.00934 u2=0.994294 u3=0 Iion=-1.36528
PIMPLE: iteration 1
DICPCG:  Solving for Vm, Initial residual = 8.72545e-06, Final residual = 1.77657e-25, No Iterations 3
PIMPLE: iteration 2
DICPCG:  Solving for Vm, Initial residual = 4.51253e-17, Final residual = 4.51253e-17, No Iterations 0
ExecutionTime = 0.02 s  ClockTime = 0 s

Time = 0.00420565

DEBUG cell=0 t=0.0041706→0.00420565 step=3.50471e-05 V=1.00203 u1=2.00934 u2=0.994294 u3=0 Iion=-1.36528
DEBUG cell=0 t=0.0041706→0.00420565 step=0.000315424 V=1.00203 u1=2.0094 u2=0.99426 u3=0 Iion=-1.36527
PIMPLE: iteration 1
DICPCG:  Solving for Vm, Initial residual = 8.72515e-06, Final residual = 1.73624e-25, No Iterations 3
PIMPLE: iteration 2
DICPCG:  Solving for Vm, Initial residual = 4.24985e-17, Final residual = 4.24985e-17, No Iterations 0
ExecutionTime = 0.02 s  ClockTime = 0 s

Time = 0.0042407

DEBUG cell=0 t=0.00420565→0.0042407 step=3.50471e-05 V=1.00205 u1=2.0094 u2=0.99426 u3=0 Iion=-1.36527
DEBUG cell=0 t=0.00420565→0.0042407 step=0.000315424 V=1.00205 u1=2.00945 u2=0.994225 u3=0 Iion=-1.36526
PIMPLE: iteration 1
DICPCG:  Solving for Vm, Initial residual = 8.72484e-06, Final residual = 3.34201e-25, No Iterations 3
PIMPLE: iteration 2
DICPCG:  Solving for Vm, Initial residual = 4.5183e-17, Final residual = 4.5183e-17, No Iterations 0
ExecutionTime = 0.02 s  ClockTime = 0 s

Time = 0.00427575

DEBUG cell=0 t=0.0042407→0.00427575 step=3.50471e-05 V=1.00207 u1=2.00945 u2=0.994225 u3=0 Iion=-1.36526
DEBUG cell=0 t=0.0042407→0.00427575 step=0.000315424 V=1.00207 u1=2.0095 u2=0.99419 u3=0 Iion=-1.36525
PIMPLE: iteration 1
DICPCG:  Solving for Vm, Initial residual = 8.72454e-06, Final residual = 1.65489e-25, No Iterations 3
PIMPLE: iteration 2
DICPCG:  Solving for Vm, Initial residual = 4.1489e-17, Final residual = 4.1489e-17, No Iterations 0
ExecutionTime = 0.02 s  ClockTime = 0 s

Time = 0.00431079

DEBUG cell=0 t=0.00427575→0.00431079 step=3.50471e-05 V=1.00209 u1=2.0095 u2=0.99419 u3=0 Iion=-1.36525
DEBUG cell=0 t=0.00427575→0.00431079 step=0.000315424 V=1.00209 u1=2.00955 u2=0.994156 u3=0 Iion=-1.36524
PIMPLE: iteration 1
DICPCG:  Solving for Vm, Initial residual = 8.72423e-06, Final residual = 1.42911e-25, No Iterations 3
PIMPLE: iteration 2
DICPCG:  Solving for Vm, Initial residual = 4.31316e-17, Final residual = 4.31316e-17, No Iterations 0
ExecutionTime = 0.02 s  ClockTime = 0 s

Time = 0.00434584

DEBUG cell=0 t=0.00431079→0.00434584 step=3.50471e-05 V=1.0021 u1=2.00955 u2=0.994156 u3=0 Iion=-1.36524
DEBUG cell=0 t=0.00431079→0.00434584 step=0.000315424 V=1.0021 u1=2.00961 u2=0.994121 u3=0 Iion=-1.36522
PIMPLE: iteration 1
DICPCG:  Solving for Vm, Initial residual = 8.72393e-06, Final residual = 1.30297e-25, No Iterations 3
PIMPLE: iteration 2
DICPCG:  Solving for Vm, Initial residual = 4.75523e-17, Final residual = 4.75523e-17, No Iterations 0
ExecutionTime = 0.02 s  ClockTime = 0 s

Time = 0.00438089

DEBUG cell=0 t=0.00434584→0.00438089 step=3.50471e-05 V=1.00212 u1=2.00961 u2=0.994121 u3=0 Iion=-1.36522
DEBUG cell=0 t=0.00434584→0.00438089 step=0.000315424 V=1.00212 u1=2.00966 u2=0.994086 u3=0 Iion=-1.36521
PIMPLE: iteration 1
DICPCG:  Solving for Vm, Initial residual = 8.72363e-06, Final residual = 1.92211e-25, No Iterations 3
PIMPLE: iteration 2
DICPCG:  Solving for Vm, Initial residual = 4.73567e-17, Final residual = 4.73567e-17, No Iterations 0
ExecutionTime = 0.02 s  ClockTime = 0 s

Time = 0.00441593

DEBUG cell=0 t=0.00438089→0.00441593 step=3.50471e-05 V=1.00214 u1=2.00966 u2=0.994086 u3=0 Iion=-1.36521
DEBUG cell=0 t=0.00438089→0.00441593 step=0.000315424 V=1.00214 u1=2.00971 u2=0.994051 u3=0 Iion=-1.3652
PIMPLE: iteration 1
DICPCG:  Solving for Vm, Initial residual = 8.72332e-06, Final residual = 1.98354e-25, No Iterations 3
PIMPLE: iteration 2
DICPCG:  Solving for Vm, Initial residual = 4.51028e-17, Final residual = 4.51028e-17, No Iterations 0
ExecutionTime = 0.02 s  ClockTime = 0 s

Time = 0.00445098

DEBUG cell=0 t=0.00441593→0.00445098 step=3.50471e-05 V=1.00216 u1=2.00971 u2=0.994051 u3=0 Iion=-1.3652
DEBUG cell=0 t=0.00441593→0.00445098 step=0.000315424 V=1.00216 u1=2.00976 u2=0.994017 u3=0 Iion=-1.36519
PIMPLE: iteration 1
DICPCG:  Solving for Vm, Initial residual = 8.72302e-06, Final residual = 1.50275e-25, No Iterations 3
PIMPLE: iteration 2
DICPCG:  Solving for Vm, Initial residual = 4.31201e-17, Final residual = 4.31201e-17, No Iterations 0
ExecutionTime = 0.02 s  ClockTime = 0 s

Time = 0.00448603

DEBUG cell=0 t=0.00445098→0.00448603 step=3.50471e-05 V=1.00217 u1=2.00976 u2=0.994017 u3=0 Iion=-1.36519
DEBUG cell=0 t=0.00445098→0.00448603 step=0.000315424 V=1.00217 u1=2.00982 u2=0.993982 u3=0 Iion=-1.36518
PIMPLE: iteration 1
DICPCG:  Solving for Vm, Initial residual = 8.72271e-06, Final residual = 2.78468e-25, No Iterations 3
PIMPLE: iteration 2
DICPCG:  Solving for Vm, Initial residual = 4.25519e-17, Final residual = 4.25519e-17, No Iterations 0
ExecutionTime = 0.02 s  ClockTime = 0 s

Time = 0.00452108

DEBUG cell=0 t=0.00448603→0.00452108 step=3.50471e-05 V=1.00219 u1=2.00982 u2=0.993982 u3=0 Iion=-1.36518
DEBUG cell=0 t=0.00448603→0.00452108 step=0.000315424 V=1.00219 u1=2.00987 u2=0.993947 u3=0 Iion=-1.36517
PIMPLE: iteration 1
DICPCG:  Solving for Vm, Initial residual = 8.72241e-06, Final residual = 1.46426e-25, No Iterations 3
PIMPLE: iteration 2
DICPCG:  Solving for Vm, Initial residual = 4.64302e-17, Final residual = 4.64302e-17, No Iterations 0
ExecutionTime = 0.02 s  ClockTime = 0 s

Time = 0.00455612

DEBUG cell=0 t=0.00452108→0.00455612 step=3.50471e-05 V=1.00221 u1=2.00987 u2=0.993947 u3=0 Iion=-1.36517
DEBUG cell=0 t=0.00452108→0.00455612 step=0.000315424 V=1.00221 u1=2.00992 u2=0.993913 u3=0 Iion=-1.36516
PIMPLE: iteration 1
DICPCG:  Solving for Vm, Initial residual = 8.7221e-06, Final residual = 1.82472e-25, No Iterations 3
PIMPLE: iteration 2
DICPCG:  Solving for Vm, Initial residual = 4.93513e-17, Final residual = 4.93513e-17, No Iterations 0
ExecutionTime = 0.02 s  ClockTime = 0 s

Time = 0.00459117

DEBUG cell=0 t=0.00455612→0.00459117 step=3.50471e-05 V=1.00223 u1=2.00992 u2=0.993913 u3=0 Iion=-1.36516
DEBUG cell=0 t=0.00455612→0.00459117 step=0.000315424 V=1.00223 u1=2.00998 u2=0.993878 u3=0 Iion=-1.36515
PIMPLE: iteration 1
DICPCG:  Solving for Vm, Initial residual = 8.7218e-06, Final residual = 1.2562e-25, No Iterations 3
PIMPLE: iteration 2
DICPCG:  Solving for Vm, Initial residual = 4.11014e-17, Final residual = 4.11014e-17, No Iterations 0
ExecutionTime = 0.02 s  ClockTime = 0 s

Time = 0.00462622

DEBUG cell=0 t=0.00459117→0.00462622 step=3.50471e-05 V=1.00224 u1=2.00998 u2=0.993878 u3=0 Iion=-1.36515
DEBUG cell=0 t=0.00459117→0.00462622 step=0.000315424 V=1.00224 u1=2.01003 u2=0.993843 u3=0 Iion=-1.36514
PIMPLE: iteration 1
DICPCG:  Solving for Vm, Initial residual = 8.72149e-06, Final residual = 1.25013e-25, No Iterations 3
PIMPLE: iteration 2
DICPCG:  Solving for Vm, Initial residual = 5.10773e-17, Final residual = 5.10773e-17, No Iterations 0
ExecutionTime = 0.02 s  ClockTime = 0 s

Time = 0.00466126

DEBUG cell=0 t=0.00462622→0.00466126 step=3.50471e-05 V=1.00226 u1=2.01003 u2=0.993843 u3=0 Iion=-1.36514
DEBUG cell=0 t=0.00462622→0.00466126 step=0.000315424 V=1.00226 u1=2.01008 u2=0.993809 u3=0 Iion=-1.36513
PIMPLE: iteration 1
DICPCG:  Solving for Vm, Initial residual = 8.72119e-06, Final residual = 1.72168e-25, No Iterations 3
PIMPLE: iteration 2
DICPCG:  Solving for Vm, Initial residual = 4.88829e-17, Final residual = 4.88829e-17, No Iterations 0
ExecutionTime = 0.02 s  ClockTime = 0 s

Time = 0.00469631

DEBUG cell=0 t=0.00466126→0.00469631 step=3.50471e-05 V=1.00228 u1=2.01008 u2=0.993809 u3=0 Iion=-1.36513
DEBUG cell=0 t=0.00466126→0.00469631 step=0.000315424 V=1.00228 u1=2.01013 u2=0.993774 u3=0 Iion=-1.36511
PIMPLE: iteration 1
DICPCG:  Solving for Vm, Initial residual = 8.72089e-06, Final residual = 1.284e-25, No Iterations 3
PIMPLE: iteration 2
DICPCG:  Solving for Vm, Initial residual = 4.45545e-17, Final residual = 4.45545e-17, No Iterations 0
ExecutionTime = 0.02 s  ClockTime = 0 s

Time = 0.00473136

DEBUG cell=0 t=0.00469631→0.00473136 step=3.50471e-05 V=1.0023 u1=2.01013 u2=0.993774 u3=0 Iion=-1.36511
DEBUG cell=0 t=0.00469631→0.00473136 step=0.000315424 V=1.0023 u1=2.01019 u2=0.993739 u3=0 Iion=-1.3651
PIMPLE: iteration 1
DICPCG:  Solving for Vm, Initial residual = 8.72058e-06, Final residual = 1.68817e-25, No Iterations 3
PIMPLE: iteration 2
DICPCG:  Solving for Vm, Initial residual = 4.5282e-17, Final residual = 4.5282e-17, No Iterations 0
ExecutionTime = 0.02 s  ClockTime = 0 s

Time = 0.00476641

DEBUG cell=0 t=0.00473136→0.00476641 step=3.50471e-05 V=1.00231 u1=2.01019 u2=0.993739 u3=0 Iion=-1.3651
DEBUG cell=0 t=0.00473136→0.00476641 step=0.000315424 V=1.00231 u1=2.01024 u2=0.993705 u3=0 Iion=-1.36509
PIMPLE: iteration 1
DICPCG:  Solving for Vm, Initial residual = 8.72028e-06, Final residual = 1.27716e-25, No Iterations 3
PIMPLE: iteration 2
DICPCG:  Solving for Vm, Initial residual = 4.85247e-17, Final residual = 4.85247e-17, No Iterations 0
ExecutionTime = 0.02 s  ClockTime = 0 s

Time = 0.00480145

DEBUG cell=0 t=0.00476641→0.00480145 step=3.50471e-05 V=1.00233 u1=2.01024 u2=0.993705 u3=0 Iion=-1.36509
DEBUG cell=0 t=0.00476641→0.00480145 step=0.000315424 V=1.00233 u1=2.01029 u2=0.99367 u3=0 Iion=-1.36508
PIMPLE: iteration 1
DICPCG:  Solving for Vm, Initial residual = 8.71997e-06, Final residual = 1.89667e-25, No Iterations 3
PIMPLE: iteration 2
DICPCG:  Solving for Vm, Initial residual = 4.61612e-17, Final residual = 4.61612e-17, No Iterations 0
ExecutionTime = 0.02 s  ClockTime = 0 s

Time = 0.0048365

DEBUG cell=0 t=0.00480145→0.0048365 step=3.50471e-05 V=1.00235 u1=2.01029 u2=0.99367 u3=0 Iion=-1.36508
DEBUG cell=0 t=0.00480145→0.0048365 step=0.000315424 V=1.00235 u1=2.01034 u2=0.993635 u3=0 Iion=-1.36507
PIMPLE: iteration 1
DICPCG:  Solving for Vm, Initial residual = 8.71967e-06, Final residual = 1.76148e-25, No Iterations 3
PIMPLE: iteration 2
DICPCG:  Solving for Vm, Initial residual = 4.71173e-17, Final residual = 4.71173e-17, No Iterations 0
ExecutionTime = 0.02 s  ClockTime = 0 s

Time = 0.00487155

DEBUG cell=0 t=0.0048365→0.00487155 step=3.50471e-05 V=1.00237 u1=2.01034 u2=0.993635 u3=0 Iion=-1.36507
DEBUG cell=0 t=0.0048365→0.00487155 step=0.000315424 V=1.00237 u1=2.0104 u2=0.993601 u3=0 Iion=-1.36506
PIMPLE: iteration 1
DICPCG:  Solving for Vm, Initial residual = 8.71937e-06, Final residual = 1.31938e-25, No Iterations 3
PIMPLE: iteration 2
DICPCG:  Solving for Vm, Initial residual = 4.63035e-17, Final residual = 4.63035e-17, No Iterations 0
ExecutionTime = 0.02 s  ClockTime = 0 s

Time = 0.00490659

DEBUG cell=0 t=0.00487155→0.00490659 step=3.50471e-05 V=1.00238 u1=2.0104 u2=0.993601 u3=0 Iion=-1.36506
DEBUG cell=0 t=0.00487155→0.00490659 step=0.000315424 V=1.00238 u1=2.01045 u2=0.993566 u3=0 Iion=-1.36505
PIMPLE: iteration 1
DICPCG:  Solving for Vm, Initial residual = 8.71906e-06, Final residual = 2.17798e-25, No Iterations 3
PIMPLE: iteration 2
DICPCG:  Solving for Vm, Initial residual = 4.84875e-17, Final residual = 4.84875e-17, No Iterations 0
ExecutionTime = 0.02 s  ClockTime = 0 s

Time = 0.00494164

DEBUG cell=0 t=0.00490659→0.00494164 step=3.50471e-05 V=1.0024 u1=2.01045 u2=0.993566 u3=0 Iion=-1.36505
DEBUG cell=0 t=0.00490659→0.00494164 step=0.000315424 V=1.0024 u1=2.0105 u2=0.993531 u3=0 Iion=-1.36504
PIMPLE: iteration 1
DICPCG:  Solving for Vm, Initial residual = 8.71876e-06, Final residual = 1.6778e-25, No Iterations 3
PIMPLE: iteration 2
DICPCG:  Solving for Vm, Initial residual = 4.25846e-17, Final residual = 4.25846e-17, No Iterations 0
ExecutionTime = 0.02 s  ClockTime = 0 s

Time = 0.00497669

DEBUG cell=0 t=0.00494164→0.00497669 step=3.50471e-05 V=1.00242 u1=2.0105 u2=0.993531 u3=0 Iion=-1.36504
DEBUG cell=0 t=0.00494164→0.00497669 step=0.000315424 V=1.00242 u1=2.01055 u2=0.993497 u3=0 Iion=-1.36503
PIMPLE: iteration 1
DICPCG:  Solving for Vm, Initial residual = 8.71845e-06, Final residual = 1.41933e-25, No Iterations 3
PIMPLE: iteration 2
DICPCG:  Solving for Vm, Initial residual = 5.03825e-17, Final residual = 5.03825e-17, No Iterations 0
ExecutionTime = 0.02 s  ClockTime = 0 s

Time = 0.00501174

DEBUG cell=0 t=0.00497669→0.00501174 step=3.50471e-05 V=1.00244 u1=2.01055 u2=0.993497 u3=0 Iion=-1.36503
DEBUG cell=0 t=0.00497669→0.00501174 step=0.000315424 V=1.00244 u1=2.01061 u2=0.993462 u3=0 Iion=-1.36502
PIMPLE: iteration 1
DICPCG:  Solving for Vm, Initial residual = 8.71815e-06, Final residual = 2.39673e-25, No Iterations 3
PIMPLE: iteration 2
DICPCG:  Solving for Vm, Initial residual = 4.64188e-17, Final residual = 4.64188e-17, No Iterations 0
ExecutionTime = 0.02 s  ClockTime = 0 s

Time = 0.00504678

DEBUG cell=0 t=0.00501174→0.00504678 step=3.50471e-05 V=1.00245 u1=2.01061 u2=0.993462 u3=0 Iion=-1.36502
DEBUG cell=0 t=0.00501174→0.00504678 step=0.000315424 V=1.00245 u1=2.01066 u2=0.993427 u3=0 Iion=-1.365
PIMPLE: iteration 1
DICPCG:  Solving for Vm, Initial residual = 8.71785e-06, Final residual = 1.97683e-25, No Iterations 3
PIMPLE: iteration 2
DICPCG:  Solving for Vm, Initial residual = 4.49108e-17, Final residual = 4.49108e-17, No Iterations 0
ExecutionTime = 0.02 s  ClockTime = 0 s

Time = 0.00508183

DEBUG cell=0 t=0.00504678→0.00508183 step=3.50471e-05 V=1.00247 u1=2.01066 u2=0.993427 u3=0 Iion=-1.365
DEBUG cell=0 t=0.00504678→0.00508183 step=0.000315424 V=1.00247 u1=2.01071 u2=0.993393 u3=0 Iion=-1.36499
PIMPLE: iteration 1
DICPCG:  Solving for Vm, Initial residual = 8.71754e-06, Final residual = 1.39384e-25, No Iterations 3
PIMPLE: iteration 2
DICPCG:  Solving for Vm, Initial residual = 4.62309e-17, Final residual = 4.62309e-17, No Iterations 0
ExecutionTime = 0.02 s  ClockTime = 0 s

Time = 0.00511688

DEBUG cell=0 t=0.00508183→0.00511688 step=3.50471e-05 V=1.00249 u1=2.01071 u2=0.993393 u3=0 Iion=-1.36499
DEBUG cell=0 t=0.00508183→0.00511688 step=0.000315424 V=1.00249 u1=2.01076 u2=0.993358 u3=0 Iion=-1.36498
PIMPLE: iteration 1
DICPCG:  Solving for Vm, Initial residual = 8.71724e-06, Final residual = 2.617e-25, No Iterations 3
PIMPLE: iteration 2
DICPCG:  Solving for Vm, Initial residual = 5.26228e-17, Final residual = 5.26228e-17, No Iterations 0
ExecutionTime = 0.02 s  ClockTime = 0 s

Time = 0.00515192

DEBUG cell=0 t=0.00511688→0.00515192 step=3.50471e-05 V=1.00251 u1=2.01076 u2=0.993358 u3=0 Iion=-1.36498
DEBUG cell=0 t=0.00511688→0.00515192 step=0.000315424 V=1.00251 u1=2.01082 u2=0.993324 u3=0 Iion=-1.36497
PIMPLE: iteration 1
DICPCG:  Solving for Vm, Initial residual = 8.71693e-06, Final residual = 1.96806e-25, No Iterations 3
PIMPLE: iteration 2
DICPCG:  Solving for Vm, Initial residual = 4.41803e-17, Final residual = 4.41803e-17, No Iterations 0
ExecutionTime = 0.02 s  ClockTime = 0 s

Time = 0.00518697

DEBUG cell=0 t=0.00515192→0.00518697 step=3.50471e-05 V=1.00252 u1=2.01082 u2=0.993324 u3=0 Iion=-1.36497
DEBUG cell=0 t=0.00515192→0.00518697 step=0.000315424 V=1.00252 u1=2.01087 u2=0.993289 u3=0 Iion=-1.36496
PIMPLE: iteration 1
DICPCG:  Solving for Vm, Initial residual = 8.71663e-06, Final residual = 2.54917e-25, No Iterations 3
PIMPLE: iteration 2
DICPCG:  Solving for Vm, Initial residual = 4.43066e-17, Final residual = 4.43066e-17, No Iterations 0
ExecutionTime = 0.02 s  ClockTime = 0 s

Time = 0.00522202

DEBUG cell=0 t=0.00518697→0.00522202 step=3.50471e-05 V=1.00254 u1=2.01087 u2=0.993289 u3=0 Iion=-1.36496
DEBUG cell=0 t=0.00518697→0.00522202 step=0.000315424 V=1.00254 u1=2.01092 u2=0.993254 u3=0 Iion=-1.36495
PIMPLE: iteration 1
DICPCG:  Solving for Vm, Initial residual = 8.71633e-06, Final residual = 1.56991e-25, No Iterations 3
PIMPLE: iteration 2
DICPCG:  Solving for Vm, Initial residual = 4.94958e-17, Final residual = 4.94958e-17, No Iterations 0
ExecutionTime = 0.02 s  ClockTime = 0 s

Time = 0.00525707

DEBUG cell=0 t=0.00522202→0.00525707 step=3.50471e-05 V=1.00256 u1=2.01092 u2=0.993254 u3=0 Iion=-1.36495
DEBUG cell=0 t=0.00522202→0.00525707 step=0.000315424 V=1.00256 u1=2.01098 u2=0.99322 u3=0 Iion=-1.36494
PIMPLE: iteration 1
DICPCG:  Solving for Vm, Initial residual = 8.71602e-06, Final residual = 2.9781e-25, No Iterations 3
PIMPLE: iteration 2
DICPCG:  Solving for Vm, Initial residual = 4.25609e-17, Final residual = 4.25609e-17, No Iterations 0
[...]
ExecutionTime = 0.74 s  ClockTime = 1 s

Time = 0.198717

DEBUG cell=0 t=0.198682→0.198717 step=3.50471e-05 V=1.09479 u1=2.29722 u2=0.832948 u3=0 Iion=-1.31474
DEBUG cell=0 t=0.198682→0.198717 step=0.000315424 V=1.09479 u1=2.29727 u2=0.832924 u3=0 Iion=-1.31474
PIMPLE: iteration 1
DICPCG:  Solving for Vm, Initial residual = 7.30936e-06, Final residual = 1.85515e-25, No Iterations 3
PIMPLE: iteration 2
DICPCG:  Solving for Vm, Initial residual = 4.99696e-17, Final residual = 4.99696e-17, No Iterations 0
ExecutionTime = 0.74 s  ClockTime = 1 s

Time = 0.198752

DEBUG cell=0 t=0.198717→0.198752 step=3.50471e-05 V=1.09481 u1=2.29727 u2=0.832924 u3=0 Iion=-1.31474
DEBUG cell=0 t=0.198717→0.198752 step=0.000315424 V=1.09481 u1=2.29732 u2=0.832899 u3=0 Iion=-1.31473
PIMPLE: iteration 1
DICPCG:  Solving for Vm, Initial residual = 7.30915e-06, Final residual = 1.24594e-25, No Iterations 3
PIMPLE: iteration 2
DICPCG:  Solving for Vm, Initial residual = 5.52642e-17, Final residual = 5.52642e-17, No Iterations 0
ExecutionTime = 0.74 s  ClockTime = 1 s

Time = 0.198787

DEBUG cell=0 t=0.198752→0.198787 step=3.50471e-05 V=1.09482 u1=2.29732 u2=0.832899 u3=0 Iion=-1.31473
DEBUG cell=0 t=0.198752→0.198787 step=0.000315424 V=1.09482 u1=2.29738 u2=0.832875 u3=0 Iion=-1.31472
PIMPLE: iteration 1
DICPCG:  Solving for Vm, Initial residual = 7.30893e-06, Final residual = 1.92126e-25, No Iterations 3
PIMPLE: iteration 2
DICPCG:  Solving for Vm, Initial residual = 5.13637e-17, Final residual = 5.13637e-17, No Iterations 0
ExecutionTime = 0.74 s  ClockTime = 1 s

Time = 0.198822

DEBUG cell=0 t=0.198787→0.198822 step=3.50471e-05 V=1.09484 u1=2.29738 u2=0.832875 u3=0 Iion=-1.31472
DEBUG cell=0 t=0.198787→0.198822 step=0.000315424 V=1.09484 u1=2.29743 u2=0.832851 u3=0 Iion=-1.31472
PIMPLE: iteration 1
DICPCG:  Solving for Vm, Initial residual = 7.30872e-06, Final residual = 2.04291e-25, No Iterations 3
PIMPLE: iteration 2
DICPCG:  Solving for Vm, Initial residual = 5.71311e-17, Final residual = 5.71311e-17, No Iterations 0
ExecutionTime = 0.74 s  ClockTime = 1 s

Time = 0.198857

DEBUG cell=0 t=0.198822→0.198857 step=3.50471e-05 V=1.09486 u1=2.29743 u2=0.832851 u3=0 Iion=-1.31472
DEBUG cell=0 t=0.198822→0.198857 step=0.000315424 V=1.09486 u1=2.29748 u2=0.832826 u3=0 Iion=-1.31471
PIMPLE: iteration 1
DICPCG:  Solving for Vm, Initial residual = 7.30851e-06, Final residual = 1.16762e-25, No Iterations 3
PIMPLE: iteration 2
DICPCG:  Solving for Vm, Initial residual = 5.2905e-17, Final residual = 5.2905e-17, No Iterations 0
ExecutionTime = 0.74 s  ClockTime = 1 s

Time = 0.198892

DEBUG cell=0 t=0.198857→0.198892 step=3.50471e-05 V=1.09487 u1=2.29748 u2=0.832826 u3=0 Iion=-1.31471
DEBUG cell=0 t=0.198857→0.198892 step=0.000315424 V=1.09487 u1=2.29753 u2=0.832802 u3=0 Iion=-1.3147
PIMPLE: iteration 1
DICPCG:  Solving for Vm, Initial residual = 7.30829e-06, Final residual = 1.11421e-25, No Iterations 3
PIMPLE: iteration 2
DICPCG:  Solving for Vm, Initial residual = 6.15407e-17, Final residual = 6.15407e-17, No Iterations 0
ExecutionTime = 0.75 s  ClockTime = 1 s

Time = 0.198927

DEBUG cell=0 t=0.198892→0.198927 step=3.50471e-05 V=1.09489 u1=2.29753 u2=0.832802 u3=0 Iion=-1.3147
DEBUG cell=0 t=0.198892→0.198927 step=0.000315424 V=1.09489 u1=2.29758 u2=0.832778 u3=0 Iion=-1.31469
PIMPLE: iteration 1
DICPCG:  Solving for Vm, Initial residual = 7.30808e-06, Final residual = 1.34364e-25, No Iterations 3
PIMPLE: iteration 2
DICPCG:  Solving for Vm, Initial residual = 5.22057e-17, Final residual = 5.22057e-17, No Iterations 0
ExecutionTime = 0.75 s  ClockTime = 1 s

Time = 0.198962

DEBUG cell=0 t=0.198927→0.198962 step=3.50471e-05 V=1.0949 u1=2.29758 u2=0.832778 u3=0 Iion=-1.31469
DEBUG cell=0 t=0.198927→0.198962 step=0.000315424 V=1.0949 u1=2.29763 u2=0.832753 u3=0 Iion=-1.31469
PIMPLE: iteration 1
DICPCG:  Solving for Vm, Initial residual = 7.30787e-06, Final residual = 1.55575e-25, No Iterations 3
PIMPLE: iteration 2
DICPCG:  Solving for Vm, Initial residual = 5.80658e-17, Final residual = 5.80658e-17, No Iterations 0
ExecutionTime = 0.75 s  ClockTime = 1 s

Time = 0.198997

DEBUG cell=0 t=0.198962→0.198997 step=3.50471e-05 V=1.09492 u1=2.29763 u2=0.832753 u3=0 Iion=-1.31469
DEBUG cell=0 t=0.198962→0.198997 step=0.000315424 V=1.09492 u1=2.29768 u2=0.832729 u3=0 Iion=-1.31468
PIMPLE: iteration 1
DICPCG:  Solving for Vm, Initial residual = 7.30765e-06, Final residual = 1.15587e-25, No Iterations 3
PIMPLE: iteration 2
DICPCG:  Solving for Vm, Initial residual = 5.80262e-17, Final residual = 5.80262e-17, No Iterations 0
ExecutionTime = 0.75 s  ClockTime = 1 s

Time = 0.199032

DEBUG cell=0 t=0.198997→0.199032 step=3.50471e-05 V=1.09494 u1=2.29768 u2=0.832729 u3=0 Iion=-1.31468
DEBUG cell=0 t=0.198997→0.199032 step=0.000315424 V=1.09494 u1=2.29773 u2=0.832705 u3=0 Iion=-1.31467
PIMPLE: iteration 1
DICPCG:  Solving for Vm, Initial residual = 7.30744e-06, Final residual = 1.60302e-25, No Iterations 3
PIMPLE: iteration 2
DICPCG:  Solving for Vm, Initial residual = 5.87695e-17, Final residual = 5.87695e-17, No Iterations 0
ExecutionTime = 0.75 s  ClockTime = 1 s

Time = 0.199068

DEBUG cell=0 t=0.199032→0.199068 step=3.50471e-05 V=1.09495 u1=2.29773 u2=0.832705 u3=0 Iion=-1.31467
DEBUG cell=0 t=0.199032→0.199068 step=0.000315424 V=1.09495 u1=2.29778 u2=0.83268 u3=0 Iion=-1.31466
PIMPLE: iteration 1
DICPCG:  Solving for Vm, Initial residual = 7.30723e-06, Final residual = 1.55512e-25, No Iterations 3
PIMPLE: iteration 2
DICPCG:  Solving for Vm, Initial residual = 5.82415e-17, Final residual = 5.82415e-17, No Iterations 0
ExecutionTime = 0.75 s  ClockTime = 1 s

Time = 0.199103

DEBUG cell=0 t=0.199068→0.199103 step=3.50471e-05 V=1.09497 u1=2.29778 u2=0.83268 u3=0 Iion=-1.31466
DEBUG cell=0 t=0.199068→0.199103 step=0.000315424 V=1.09497 u1=2.29784 u2=0.832656 u3=0 Iion=-1.31466
PIMPLE: iteration 1
DICPCG:  Solving for Vm, Initial residual = 7.30701e-06, Final residual = 2.12458e-25, No Iterations 3
PIMPLE: iteration 2
DICPCG:  Solving for Vm, Initial residual = 5.36825e-17, Final residual = 5.36825e-17, No Iterations 0
ExecutionTime = 0.75 s  ClockTime = 1 s

Time = 0.199138

DEBUG cell=0 t=0.199103→0.199138 step=3.50471e-05 V=1.09498 u1=2.29784 u2=0.832656 u3=0 Iion=-1.31466
DEBUG cell=0 t=0.199103→0.199138 step=0.000315424 V=1.09498 u1=2.29789 u2=0.832632 u3=0 Iion=-1.31465
PIMPLE: iteration 1
DICPCG:  Solving for Vm, Initial residual = 7.3068e-06, Final residual = 1.23514e-25, No Iterations 3
PIMPLE: iteration 2
DICPCG:  Solving for Vm, Initial residual = 5.10228e-17, Final residual = 5.10228e-17, No Iterations 0
ExecutionTime = 0.75 s  ClockTime = 1 s

Time = 0.199173

DEBUG cell=0 t=0.199138→0.199173 step=3.50471e-05 V=1.095 u1=2.29789 u2=0.832632 u3=0 Iion=-1.31465
DEBUG cell=0 t=0.199138→0.199173 step=0.000315424 V=1.095 u1=2.29794 u2=0.832607 u3=0 Iion=-1.31464
PIMPLE: iteration 1
DICPCG:  Solving for Vm, Initial residual = 7.30658e-06, Final residual = 1.85434e-25, No Iterations 3
PIMPLE: iteration 2
DICPCG:  Solving for Vm, Initial residual = 4.41385e-17, Final residual = 4.41385e-17, No Iterations 0
ExecutionTime = 0.75 s  ClockTime = 1 s

Time = 0.199208

DEBUG cell=0 t=0.199173→0.199208 step=3.50471e-05 V=1.09502 u1=2.29794 u2=0.832607 u3=0 Iion=-1.31464
DEBUG cell=0 t=0.199173→0.199208 step=0.000315424 V=1.09502 u1=2.29799 u2=0.832583 u3=0 Iion=-1.31463
PIMPLE: iteration 1
DICPCG:  Solving for Vm, Initial residual = 7.30637e-06, Final residual = 1.32227e-25, No Iterations 3
PIMPLE: iteration 2
DICPCG:  Solving for Vm, Initial residual = 4.61843e-17, Final residual = 4.61843e-17, No Iterations 0
ExecutionTime = 0.75 s  ClockTime = 1 s

Time = 0.199243

DEBUG cell=0 t=0.199208→0.199243 step=3.50471e-05 V=1.09503 u1=2.29799 u2=0.832583 u3=0 Iion=-1.31463
DEBUG cell=0 t=0.199208→0.199243 step=0.000315424 V=1.09503 u1=2.29804 u2=0.832559 u3=0 Iion=-1.31463
PIMPLE: iteration 1
DICPCG:  Solving for Vm, Initial residual = 7.30616e-06, Final residual = 2.01384e-25, No Iterations 3
PIMPLE: iteration 2
DICPCG:  Solving for Vm, Initial residual = 4.64317e-17, Final residual = 4.64317e-17, No Iterations 0
ExecutionTime = 0.75 s  ClockTime = 1 s

Time = 0.199278

DEBUG cell=0 t=0.199243→0.199278 step=3.50471e-05 V=1.09505 u1=2.29804 u2=0.832559 u3=0 Iion=-1.31463
DEBUG cell=0 t=0.199243→0.199278 step=0.000315424 V=1.09505 u1=2.29809 u2=0.832534 u3=0 Iion=-1.31462
PIMPLE: iteration 1
DICPCG:  Solving for Vm, Initial residual = 7.30594e-06, Final residual = 1.47173e-25, No Iterations 3
PIMPLE: iteration 2
DICPCG:  Solving for Vm, Initial residual = 5.82364e-17, Final residual = 5.82364e-17, No Iterations 0
ExecutionTime = 0.75 s  ClockTime = 1 s

Time = 0.199313

DEBUG cell=0 t=0.199278→0.199313 step=3.50471e-05 V=1.09506 u1=2.29809 u2=0.832534 u3=0 Iion=-1.31462
DEBUG cell=0 t=0.199278→0.199313 step=0.000315424 V=1.09506 u1=2.29814 u2=0.83251 u3=0 Iion=-1.31461
PIMPLE: iteration 1
DICPCG:  Solving for Vm, Initial residual = 7.30573e-06, Final residual = 2.50329e-25, No Iterations 3
PIMPLE: iteration 2
DICPCG:  Solving for Vm, Initial residual = 5.80418e-17, Final residual = 5.80418e-17, No Iterations 0
ExecutionTime = 0.75 s  ClockTime = 1 s

Time = 0.199348

DEBUG cell=0 t=0.199313→0.199348 step=3.50471e-05 V=1.09508 u1=2.29814 u2=0.83251 u3=0 Iion=-1.31461
DEBUG cell=0 t=0.199313→0.199348 step=0.000315424 V=1.09508 u1=2.29819 u2=0.832486 u3=0 Iion=-1.3146
PIMPLE: iteration 1
DICPCG:  Solving for Vm, Initial residual = 7.30552e-06, Final residual = 1.38409e-25, No Iterations 3
PIMPLE: iteration 2
DICPCG:  Solving for Vm, Initial residual = 5.74673e-17, Final residual = 5.74673e-17, No Iterations 0
ExecutionTime = 0.75 s  ClockTime = 1 s

Time = 0.199383

DEBUG cell=0 t=0.199348→0.199383 step=3.50471e-05 V=1.0951 u1=2.29819 u2=0.832486 u3=0 Iion=-1.3146
DEBUG cell=0 t=0.199348→0.199383 step=0.000315424 V=1.0951 u1=2.29824 u2=0.832461 u3=0 Iion=-1.3146
PIMPLE: iteration 1
DICPCG:  Solving for Vm, Initial residual = 7.3053e-06, Final residual = 1.59711e-25, No Iterations 3
PIMPLE: iteration 2
DICPCG:  Solving for Vm, Initial residual = 5.64899e-17, Final residual = 5.64899e-17, No Iterations 0
ExecutionTime = 0.75 s  ClockTime = 1 s

Time = 0.199418

DEBUG cell=0 t=0.199383→0.199418 step=3.50471e-05 V=1.09511 u1=2.29824 u2=0.832461 u3=0 Iion=-1.3146
DEBUG cell=0 t=0.199383→0.199418 step=0.000315424 V=1.09511 u1=2.2983 u2=0.832437 u3=0 Iion=-1.31459
PIMPLE: iteration 1
DICPCG:  Solving for Vm, Initial residual = 7.30509e-06, Final residual = 1.54901e-25, No Iterations 3
PIMPLE: iteration 2
DICPCG:  Solving for Vm, Initial residual = 5.1854e-17, Final residual = 5.1854e-17, No Iterations 0
ExecutionTime = 0.75 s  ClockTime = 1 s

Time = 0.199453

DEBUG cell=0 t=0.199418→0.199453 step=3.50471e-05 V=1.09513 u1=2.2983 u2=0.832437 u3=0 Iion=-1.31459
DEBUG cell=0 t=0.199418→0.199453 step=0.000315424 V=1.09513 u1=2.29835 u2=0.832413 u3=0 Iion=-1.31458
PIMPLE: iteration 1
DICPCG:  Solving for Vm, Initial residual = 7.30488e-06, Final residual = 1.11471e-25, No Iterations 3
PIMPLE: iteration 2
DICPCG:  Solving for Vm, Initial residual = 5.32406e-17, Final residual = 5.32406e-17, No Iterations 0
ExecutionTime = 0.75 s  ClockTime = 1 s

Time = 0.199488

DEBUG cell=0 t=0.199453→0.199488 step=3.50471e-05 V=1.09514 u1=2.29835 u2=0.832413 u3=0 Iion=-1.31458
DEBUG cell=0 t=0.199453→0.199488 step=0.000315424 V=1.09514 u1=2.2984 u2=0.832388 u3=0 Iion=-1.31457
PIMPLE: iteration 1
DICPCG:  Solving for Vm, Initial residual = 7.30466e-06, Final residual = 1.64334e-25, No Iterations 3
PIMPLE: iteration 2
DICPCG:  Solving for Vm, Initial residual = 5.17284e-17, Final residual = 5.17284e-17, No Iterations 0
ExecutionTime = 0.75 s  ClockTime = 1 s

Time = 0.199523

DEBUG cell=0 t=0.199488→0.199523 step=3.50471e-05 V=1.09516 u1=2.2984 u2=0.832388 u3=0 Iion=-1.31457
DEBUG cell=0 t=0.199488→0.199523 step=0.000315424 V=1.09516 u1=2.29845 u2=0.832364 u3=0 Iion=-1.31457
PIMPLE: iteration 1
DICPCG:  Solving for Vm, Initial residual = 7.30445e-06, Final residual = 1.21679e-25, No Iterations 3
PIMPLE: iteration 2
DICPCG:  Solving for Vm, Initial residual = 4.65348e-17, Final residual = 4.65348e-17, No Iterations 0
ExecutionTime = 0.75 s  ClockTime = 1 s

Time = 0.199558

DEBUG cell=0 t=0.199523→0.199558 step=3.50471e-05 V=1.09518 u1=2.29845 u2=0.832364 u3=0 Iion=-1.31457
DEBUG cell=0 t=0.199523→0.199558 step=0.000315424 V=1.09518 u1=2.2985 u2=0.83234 u3=0 Iion=-1.31456
PIMPLE: iteration 1
DICPCG:  Solving for Vm, Initial residual = 7.30424e-06, Final residual = 1.97241e-25, No Iterations 3
PIMPLE: iteration 2
DICPCG:  Solving for Vm, Initial residual = 6.22986e-17, Final residual = 6.22986e-17, No Iterations 0
ExecutionTime = 0.75 s  ClockTime = 1 s

Time = 0.199593

DEBUG cell=0 t=0.199558→0.199593 step=3.50471e-05 V=1.09519 u1=2.2985 u2=0.83234 u3=0 Iion=-1.31456
DEBUG cell=0 t=0.199558→0.199593 step=0.000315424 V=1.09519 u1=2.29855 u2=0.832315 u3=0 Iion=-1.31455
PIMPLE: iteration 1
DICPCG:  Solving for Vm, Initial residual = 7.30402e-06, Final residual = 1.20103e-25, No Iterations 3
PIMPLE: iteration 2
DICPCG:  Solving for Vm, Initial residual = 5.07031e-17, Final residual = 5.07031e-17, No Iterations 0
ExecutionTime = 0.75 s  ClockTime = 1 s

Time = 0.199628

DEBUG cell=0 t=0.199593→0.199628 step=3.50471e-05 V=1.09521 u1=2.29855 u2=0.832315 u3=0 Iion=-1.31455
DEBUG cell=0 t=0.199593→0.199628 step=0.000315424 V=1.09521 u1=2.2986 u2=0.832291 u3=0 Iion=-1.31454
PIMPLE: iteration 1
DICPCG:  Solving for Vm, Initial residual = 7.30381e-06, Final residual = 1.21735e-25, No Iterations 3
PIMPLE: iteration 2
DICPCG:  Solving for Vm, Initial residual = 4.99894e-17, Final residual = 4.99894e-17, No Iterations 0
ExecutionTime = 0.75 s  ClockTime = 1 s

Time = 0.199663

DEBUG cell=0 t=0.199628→0.199663 step=3.50471e-05 V=1.09522 u1=2.2986 u2=0.832291 u3=0 Iion=-1.31454
DEBUG cell=0 t=0.199628→0.199663 step=0.000315424 V=1.09522 u1=2.29865 u2=0.832267 u3=0 Iion=-1.31454
PIMPLE: iteration 1
DICPCG:  Solving for Vm, Initial residual = 7.3036e-06, Final residual = 1.49089e-25, No Iterations 3
PIMPLE: iteration 2
DICPCG:  Solving for Vm, Initial residual = 6.01336e-17, Final residual = 6.01336e-17, No Iterations 0
ExecutionTime = 0.75 s  ClockTime = 1 s

Time = 0.199698

DEBUG cell=0 t=0.199663→0.199698 step=3.50471e-05 V=1.09524 u1=2.29865 u2=0.832267 u3=0 Iion=-1.31454
DEBUG cell=0 t=0.199663→0.199698 step=0.000315424 V=1.09524 u1=2.29871 u2=0.832242 u3=0 Iion=-1.31453
PIMPLE: iteration 1
DICPCG:  Solving for Vm, Initial residual = 7.30338e-06, Final residual = 1.07799e-25, No Iterations 3
PIMPLE: iteration 2
DICPCG:  Solving for Vm, Initial residual = 6.23725e-17, Final residual = 6.23725e-17, No Iterations 0
ExecutionTime = 0.75 s  ClockTime = 1 s

Time = 0.199733

DEBUG cell=0 t=0.199698→0.199733 step=3.50471e-05 V=1.09526 u1=2.29871 u2=0.832242 u3=0 Iion=-1.31453
DEBUG cell=0 t=0.199698→0.199733 step=0.000315424 V=1.09526 u1=2.29876 u2=0.832218 u3=0 Iion=-1.31452
PIMPLE: iteration 1
DICPCG:  Solving for Vm, Initial residual = 7.30317e-06, Final residual = 1.1104e-25, No Iterations 3
PIMPLE: iteration 2
DICPCG:  Solving for Vm, Initial residual = 5.27151e-17, Final residual = 5.27151e-17, No Iterations 0
ExecutionTime = 0.75 s  ClockTime = 1 s

Time = 0.199768

DEBUG cell=0 t=0.199733→0.199768 step=3.50471e-05 V=1.09527 u1=2.29876 u2=0.832218 u3=0 Iion=-1.31452
DEBUG cell=0 t=0.199733→0.199768 step=0.000315424 V=1.09527 u1=2.29881 u2=0.832194 u3=0 Iion=-1.31451
PIMPLE: iteration 1
DICPCG:  Solving for Vm, Initial residual = 7.30296e-06, Final residual = 1.29733e-25, No Iterations 3
PIMPLE: iteration 2
DICPCG:  Solving for Vm, Initial residual = 5.47913e-17, Final residual = 5.47913e-17, No Iterations 0
ExecutionTime = 0.75 s  ClockTime = 1 s

Time = 0.199804

DEBUG cell=0 t=0.199768→0.199804 step=3.50471e-05 V=1.09529 u1=2.29881 u2=0.832194 u3=0 Iion=-1.31451
DEBUG cell=0 t=0.199768→0.199804 step=0.000315424 V=1.09529 u1=2.29886 u2=0.832169 u3=0 Iion=-1.31451
PIMPLE: iteration 1
DICPCG:  Solving for Vm, Initial residual = 7.30274e-06, Final residual = 1.28621e-25, No Iterations 3
PIMPLE: iteration 2
DICPCG:  Solving for Vm, Initial residual = 4.45764e-17, Final residual = 4.45764e-17, No Iterations 0
ExecutionTime = 0.75 s  ClockTime = 1 s

Time = 0.199839

DEBUG cell=0 t=0.199804→0.199839 step=3.50471e-05 V=1.0953 u1=2.29886 u2=0.832169 u3=0 Iion=-1.31451
DEBUG cell=0 t=0.199804→0.199839 step=0.000315424 V=1.0953 u1=2.29891 u2=0.832145 u3=0 Iion=-1.3145
PIMPLE: iteration 1
DICPCG:  Solving for Vm, Initial residual = 7.30253e-06, Final residual = 1.78865e-25, No Iterations 3
PIMPLE: iteration 2
DICPCG:  Solving for Vm, Initial residual = 5.17751e-17, Final residual = 5.17751e-17, No Iterations 0
ExecutionTime = 0.75 s  ClockTime = 1 s

Time = 0.199874

DEBUG cell=0 t=0.199839→0.199874 step=3.50471e-05 V=1.09532 u1=2.29891 u2=0.832145 u3=0 Iion=-1.3145
DEBUG cell=0 t=0.199839→0.199874 step=0.000315424 V=1.09532 u1=2.29896 u2=0.832121 u3=0 Iion=-1.31449
PIMPLE: iteration 1
DICPCG:  Solving for Vm, Initial residual = 7.30232e-06, Final residual = 9.90343e-26, No Iterations 3
PIMPLE: iteration 2
DICPCG:  Solving for Vm, Initial residual = 5.05965e-17, Final residual = 5.05965e-17, No Iterations 0
ExecutionTime = 0.75 s  ClockTime = 1 s

Time = 0.199909

DEBUG cell=0 t=0.199874→0.199909 step=3.50471e-05 V=1.09534 u1=2.29896 u2=0.832121 u3=0 Iion=-1.31449
DEBUG cell=0 t=0.199874→0.199909 step=0.000315424 V=1.09534 u1=2.29901 u2=0.832097 u3=0 Iion=-1.31448
PIMPLE: iteration 1
DICPCG:  Solving for Vm, Initial residual = 7.3021e-06, Final residual = 1.78662e-25, No Iterations 3
PIMPLE: iteration 2
DICPCG:  Solving for Vm, Initial residual = 5.03865e-17, Final residual = 5.03865e-17, No Iterations 0
ExecutionTime = 0.75 s  ClockTime = 1 s

Time = 0.199944

DEBUG cell=0 t=0.199909→0.199944 step=3.50471e-05 V=1.09535 u1=2.29901 u2=0.832097 u3=0 Iion=-1.31448
DEBUG cell=0 t=0.199909→0.199944 step=0.000315424 V=1.09535 u1=2.29906 u2=0.832072 u3=0 Iion=-1.31448
PIMPLE: iteration 1
DICPCG:  Solving for Vm, Initial residual = 7.30189e-06, Final residual = 3.24787e-25, No Iterations 3
PIMPLE: iteration 2
DICPCG:  Solving for Vm, Initial residual = 4.69993e-17, Final residual = 4.69993e-17, No Iterations 0
ExecutionTime = 0.75 s  ClockTime = 1 s

Time = 0.199979

DEBUG cell=0 t=0.199944→0.199979 step=3.50471e-05 V=1.09537 u1=2.29906 u2=0.832072 u3=0 Iion=-1.31448
DEBUG cell=0 t=0.199944→0.199979 step=0.000315424 V=1.09537 u1=2.29911 u2=0.832048 u3=0 Iion=-1.31447
PIMPLE: iteration 1
DICPCG:  Solving for Vm, Initial residual = 7.30168e-06, Final residual = 1.31912e-25, No Iterations 3
PIMPLE: iteration 2
DICPCG:  Solving for Vm, Initial residual = 5.87851e-17, Final residual = 5.87851e-17, No Iterations 0
ExecutionTime = 0.75 s  ClockTime = 1 s

Time = 0.200014

DEBUG cell=0 t=0.199979→0.200014 step=3.50471e-05 V=1.09538 u1=2.29911 u2=0.832048 u3=0 Iion=-1.31447
DEBUG cell=0 t=0.199979→0.200014 step=0.000315424 V=1.09538 u1=2.29917 u2=0.832024 u3=0 Iion=-1.31446
PIMPLE: iteration 1
DICPCG:  Solving for Vm, Initial residual = 7.30146e-06, Final residual = 2.10851e-25, No Iterations 3
PIMPLE: iteration 2
DICPCG:  Solving for Vm, Initial residual = 5.4592e-17, Final residual = 5.4592e-17, No Iterations 0
Running postProcess via tmanufacturedFDA.

Simulation summary:
-------------------
Number of cells (N)   = 160
Solver type           = Implicit
Grid spacing (dx)     = 0.00625
Time step (dt)        = 3.50471e-05
Number of steps       = 5707
Final simulation time = 0.200014
-------------------

Manufactured-solution error summary (t = 0.200014):
-------------------------------------------------
Field     L1-error       L2-error       Linf-error
Vm     6.08057e-07   8.46265e-07   1.73318e-06
u1     1.69309e-06   1.91061e-06   3.22493e-06
u2     4.4525e-07   5.30467e-07   1.12672e-06
-------------------------------------------------

ExecutionTime = 0.75 s  ClockTime = 1 s


End

Finalising parallel run
