/*---------------------------------------------------------------------------*\
| =========                 |                                                 |
| \\      /  F ield         | OpenFOAM: The Open Source CFD Toolbox           |
|  \\    /   O peration     | Version:  2412                                  |
|   \\  /    A nd           | Website:  www.openfoam.com                      |
|    \\/     M anipulation  |                                                 |
\*---------------------------------------------------------------------------*/
Build  : _8dbc61e11c-20241220 OPENFOAM=2412 version=v2412
Arch   : "LSB;label=32;scalar=64"
Exec   : cardiacFoam -parallel
Date   : Mar 19 2026
Time   : 20:06:56
Host   : macbook
PID    : 85930
I/O    : uncollated
Case   : /Users/simaocastro/cardiacFoamv2/tutorials/manufacturedFDA
nProcs : 6
Hosts  :
(
    (macbook 6)
)
Pstream initialized with:
    floatTransfer      : false
    maxCommsSize       : 0
    nProcsSimpleSum    : 0
    nonBlockingExchange: 0 (tuning: 0)
    exchange algorithm : 0
    commsType          : nonBlocking
    polling iterations : 0
trapFpe: Floating point exception trapping enabled (FOAM_SIGFPE).
fileModificationChecking : Monitoring run-time modified files using timeStampMaster (fileModificationSkew 5, maxFileModificationPolls 20)
allowSystemOperations : Allowing user-supplied system call operations

// * * * * * * * * * * * * * * * * * * * * * * * * * * * * * * * * * * * * * //
Create time

Selecting physicsModel electroModel

Selecting electroModel monoDomainElectro

conductivity not found on disk, using value from "/Users/simaocastro/cardiacFoamv2/tutorials/manufacturedFDA/processor0/../constant/electroProperties/monoDomainElectroCoeffs"

conductivity tensor (cell 0): (0.111453 0 0 0 0.121585 0 0 0 0.0303964)
--> FOAM Warning : 
    From Foam::electroModels::monoDomainElectro::monoDomainElectro(const word &, Time &, const word &)
    in file monoDomainElectro/monoDomainElectro.C at line 322
    Stimulus box index 0 does not contain any mesh cells.
Surface-to-volume ratio chi = chi [0 -1 0 0 0 0 0] 3
Membrane capacitance Cm = Cm [-1 -4 4 0 0 2 0] 2

Using pre/post processor tmanufacturedFDA for ionic model tmanufacturedFDA.
Running preProcess with fields 3(u1 u2 u3).
Selecting ecgModel pseudoECGElectro
ECG conductivity source: monodomain conductivity field

ECG electrodes (5):
  E1  @  (-0.5 0.5 0)
  E2  @  (1.5 0.5 0)
  E3  @  (1.2 0.23 0)
  E4  @  (1.35 0.78 0)
  E5  @  (0.18 1.35 0)

Enabled manufactured pseudo-ECG references: qRef=96, qChecks=(6 12 24 48), dimension=2.
Time = 0.000140174

Solving the mono-domain equation for Vm using an implicit approach
DEBUG cell=0 t=0→0.000140174 step=0.000140174 V=-0.999036 u1=0.00248726 u2=0.999239 u3=0 Iion=0
Selecting ODE solver RKF45
DEBUG cell=0 t=0→0.000140174 step=0.00126157 V=-0.999036 u1=0.00255762 u2=0.999099 u3=0 Iion=2.9636

PIMPLE: no residual control data found. Calculations will employ 2 corrector loops

PIMPLE: iteration 1
DICPCG:  Solving for Vm, Initial residual = 3.5063e-05, Final residual = 3.9115e-16, No Iterations 5
PIMPLE: iteration 2
DICPCG:  Solving for Vm, Initial residual = 4.23259e-16, Final residual = 4.23259e-16, No Iterations 0
ExecutionTime = 0.01 s  ClockTime = 0 s

Time = 0.000280348

DEBUG cell=0 t=0.000140174→0.000280348 step=0.000140174 V=-0.999106 u1=0.00255762 u2=0.999099 u3=0 Iion=2.9636
DEBUG cell=0 t=0.000140174→0.000280348 step=0.00126157 V=-0.999106 u1=0.00262799 u2=0.998959 u3=0 Iion=2.96367
PIMPLE: iteration 1
DICPCG:  Solving for Vm, Initial residual = 3.50589e-05, Final residual = 5.28582e-17, No Iterations 5
PIMPLE: iteration 2
DICPCG:  Solving for Vm, Initial residual = 1.05697e-16, Final residual = 1.05697e-16, No Iterations 0
ExecutionTime = 0.01 s  ClockTime = 0 s

Time = 0.000420522

DEBUG cell=0 t=0.000280348→0.000420522 step=0.000140174 V=-0.999177 u1=0.00262799 u2=0.998959 u3=0 Iion=2.96367
DEBUG cell=0 t=0.000280348→0.000420522 step=0.00126157 V=-0.999177 u1=0.00269837 u2=0.998819 u3=0 Iion=2.96373
PIMPLE: iteration 1
DICPCG:  Solving for Vm, Initial residual = 3.50543e-05, Final residual = 5.28512e-17, No Iterations 5
PIMPLE: iteration 2
DICPCG:  Solving for Vm, Initial residual = 1.08262e-16, Final residual = 1.08262e-16, No Iterations 0
ExecutionTime = 0.01 s  ClockTime = 0 s

Time = 0.000560696

DEBUG cell=0 t=0.000420522→0.000560696 step=0.000140174 V=-0.999247 u1=0.00269837 u2=0.998819 u3=0 Iion=2.96373
DEBUG cell=0 t=0.000420522→0.000560696 step=0.00126157 V=-0.999247 u1=0.00276875 u2=0.998679 u3=0 Iion=2.9638
PIMPLE: iteration 1
DICPCG:  Solving for Vm, Initial residual = 3.50495e-05, Final residual = 5.2844e-17, No Iterations 5
PIMPLE: iteration 2
DICPCG:  Solving for Vm, Initial residual = 1.07065e-16, Final residual = 1.07065e-16, No Iterations 0
ExecutionTime = 0.01 s  ClockTime = 0 s

Time = 0.00070087

DEBUG cell=0 t=0.000560696→0.00070087 step=0.000140174 V=-0.999317 u1=0.00276875 u2=0.998679 u3=0 Iion=2.9638
DEBUG cell=0 t=0.000560696→0.00070087 step=0.00126157 V=-0.999317 u1=0.00283913 u2=0.998539 u3=0 Iion=2.96387
PIMPLE: iteration 1
DICPCG:  Solving for Vm, Initial residual = 3.50446e-05, Final residual = 5.28366e-17, No Iterations 5
PIMPLE: iteration 2
DICPCG:  Solving for Vm, Initial residual = 1.07959e-16, Final residual = 1.07959e-16, No Iterations 0
ExecutionTime = 0.01 s  ClockTime = 0 s

Time = 0.000841044

DEBUG cell=0 t=0.00070087→0.000841044 step=0.000140174 V=-0.999387 u1=0.00283913 u2=0.998539 u3=0 Iion=2.96387
DEBUG cell=0 t=0.00070087→0.000841044 step=0.00126157 V=-0.999387 u1=0.00290952 u2=0.998399 u3=0 Iion=2.96394
PIMPLE: iteration 1
DICPCG:  Solving for Vm, Initial residual = 3.50397e-05, Final residual = 5.28293e-17, No Iterations 5
PIMPLE: iteration 2
DICPCG:  Solving for Vm, Initial residual = 1.07762e-16, Final residual = 1.07762e-16, No Iterations 0
ExecutionTime = 0.02 s  ClockTime = 0 s

Time = 0.000981218

DEBUG cell=0 t=0.000841044→0.000981218 step=0.000140174 V=-0.999457 u1=0.00290952 u2=0.998399 u3=0 Iion=2.96394
DEBUG cell=0 t=0.000841044→0.000981218 step=0.00126157 V=-0.999457 u1=0.00297992 u2=0.99826 u3=0 Iion=2.96401
PIMPLE: iteration 1
DICPCG:  Solving for Vm, Initial residual = 3.50348e-05, Final residual = 5.28219e-17, No Iterations 5
PIMPLE: iteration 2
DICPCG:  Solving for Vm, Initial residual = 1.08109e-16, Final residual = 1.08109e-16, No Iterations 0
ExecutionTime = 0.02 s  ClockTime = 0 s

Time = 0.00112139

DEBUG cell=0 t=0.000981218→0.00112139 step=0.000140174 V=-0.999527 u1=0.00297992 u2=0.99826 u3=0 Iion=2.96401
DEBUG cell=0 t=0.000981218→0.00112139 step=0.00126157 V=-0.999527 u1=0.00305032 u2=0.99812 u3=0 Iion=2.96407
PIMPLE: iteration 1
DICPCG:  Solving for Vm, Initial residual = 3.50299e-05, Final residual = 5.28145e-17, No Iterations 5
PIMPLE: iteration 2
DICPCG:  Solving for Vm, Initial residual = 1.06644e-16, Final residual = 1.06644e-16, No Iterations 0
ExecutionTime = 0.02 s  ClockTime = 0 s

Time = 0.00126157

DEBUG cell=0 t=0.00112139→0.00126157 step=0.000140174 V=-0.999597 u1=0.00305032 u2=0.99812 u3=0 Iion=2.96407
DEBUG cell=0 t=0.00112139→0.00126157 step=0.00126157 V=-0.999597 u1=0.00312072 u2=0.99798 u3=0 Iion=2.96414
PIMPLE: iteration 1
DICPCG:  Solving for Vm, Initial residual = 3.5025e-05, Final residual = 5.28071e-17, No Iterations 5
PIMPLE: iteration 2
DICPCG:  Solving for Vm, Initial residual = 1.0862e-16, Final residual = 1.0862e-16, No Iterations 0
ExecutionTime = 0.02 s  ClockTime = 0 s

Time = 0.00140174

DEBUG cell=0 t=0.00126157→0.00140174 step=0.000140174 V=-0.999667 u1=0.00312072 u2=0.99798 u3=0 Iion=2.96414
DEBUG cell=0 t=0.00126157→0.00140174 step=0.00126157 V=-0.999667 u1=0.00319113 u2=0.99784 u3=0 Iion=2.96421
PIMPLE: iteration 1
DICPCG:  Solving for Vm, Initial residual = 3.50201e-05, Final residual = 5.27997e-17, No Iterations 5
PIMPLE: iteration 2
DICPCG:  Solving for Vm, Initial residual = 1.07286e-16, Final residual = 1.07286e-16, No Iterations 0
ExecutionTime = 0.02 s  ClockTime = 0 s

Time = 0.00154191

DEBUG cell=0 t=0.00140174→0.00154191 step=0.000140174 V=-0.999737 u1=0.00319113 u2=0.99784 u3=0 Iion=2.96421
DEBUG cell=0 t=0.00140174→0.00154191 step=0.00126157 V=-0.999737 u1=0.00326155 u2=0.997701 u3=0 Iion=2.96428
PIMPLE: iteration 1
DICPCG:  Solving for Vm, Initial residual = 3.50152e-05, Final residual = 5.27923e-17, No Iterations 5
PIMPLE: iteration 2
DICPCG:  Solving for Vm, Initial residual = 1.08252e-16, Final residual = 1.08252e-16, No Iterations 0
ExecutionTime = 0.02 s  ClockTime = 0 s

Time = 0.00168209

DEBUG cell=0 t=0.00154191→0.00168209 step=0.000140174 V=-0.999807 u1=0.00326155 u2=0.997701 u3=0 Iion=2.96428
DEBUG cell=0 t=0.00154191→0.00168209 step=0.00126157 V=-0.999807 u1=0.00333197 u2=0.997561 u3=0 Iion=2.96435
PIMPLE: iteration 1
DICPCG:  Solving for Vm, Initial residual = 3.50103e-05, Final residual = 5.27849e-17, No Iterations 5
PIMPLE: iteration 2
DICPCG:  Solving for Vm, Initial residual = 1.08109e-16, Final residual = 1.08109e-16, No Iterations 0
ExecutionTime = 0.02 s  ClockTime = 0 s

Time = 0.00182226

DEBUG cell=0 t=0.00168209→0.00182226 step=0.000140174 V=-0.999877 u1=0.00333197 u2=0.997561 u3=0 Iion=2.96435
DEBUG cell=0 t=0.00168209→0.00182226 step=0.00126157 V=-0.999877 u1=0.00340239 u2=0.997422 u3=0 Iion=2.96441
PIMPLE: iteration 1
DICPCG:  Solving for Vm, Initial residual = 3.50054e-05, Final residual = 5.27776e-17, No Iterations 5
PIMPLE: iteration 2
DICPCG:  Solving for Vm, Initial residual = 1.06217e-16, Final residual = 1.06217e-16, No Iterations 0
ExecutionTime = 0.02 s  ClockTime = 0 s

Time = 0.00196244

DEBUG cell=0 t=0.00182226→0.00196244 step=0.000140174 V=-0.999947 u1=0.00340239 u2=0.997422 u3=0 Iion=2.96441
DEBUG cell=0 t=0.00182226→0.00196244 step=0.00126157 V=-0.999947 u1=0.00347282 u2=0.997282 u3=0 Iion=2.96448
PIMPLE: iteration 1
DICPCG:  Solving for Vm, Initial residual = 3.50005e-05, Final residual = 5.27702e-17, No Iterations 5
PIMPLE: iteration 2
DICPCG:  Solving for Vm, Initial residual = 1.07044e-16, Final residual = 1.07044e-16, No Iterations 0
ExecutionTime = 0.02 s  ClockTime = 0 s

Time = 0.00210261

DEBUG cell=0 t=0.00196244→0.00210261 step=0.000140174 V=-1.00002 u1=0.00347282 u2=0.997282 u3=0 Iion=2.96448
DEBUG cell=0 t=0.00196244→0.00210261 step=0.00126157 V=-1.00002 u1=0.00354326 u2=0.997142 u3=0 Iion=2.96455
PIMPLE: iteration 1
DICPCG:  Solving for Vm, Initial residual = 3.49956e-05, Final residual = 5.27628e-17, No Iterations 5
PIMPLE: iteration 2
DICPCG:  Solving for Vm, Initial residual = 1.06975e-16, Final residual = 1.06975e-16, No Iterations 0
ExecutionTime = 0.02 s  ClockTime = 0 s

Time = 0.00224278

DEBUG cell=0 t=0.00210261→0.00224278 step=0.000140174 V=-1.00009 u1=0.00354326 u2=0.997142 u3=0 Iion=2.96455
DEBUG cell=0 t=0.00210261→0.00224278 step=0.00126157 V=-1.00009 u1=0.0036137 u2=0.997003 u3=0 Iion=2.96462
PIMPLE: iteration 1
DICPCG:  Solving for Vm, Initial residual = 3.49907e-05, Final residual = 5.27554e-17, No Iterations 5
PIMPLE: iteration 2
DICPCG:  Solving for Vm, Initial residual = 1.083e-16, Final residual = 1.083e-16, No Iterations 0
ExecutionTime = 0.02 s  ClockTime = 0 s

Time = 0.00238296

DEBUG cell=0 t=0.00224278→0.00238296 step=0.000140174 V=-1.00016 u1=0.0036137 u2=0.997003 u3=0 Iion=2.96462
DEBUG cell=0 t=0.00224278→0.00238296 step=0.00126157 V=-1.00016 u1=0.00368414 u2=0.996864 u3=0 Iion=2.96469
PIMPLE: iteration 1
DICPCG:  Solving for Vm, Initial residual = 3.49858e-05, Final residual = 5.27481e-17, No Iterations 5
PIMPLE: iteration 2
DICPCG:  Solving for Vm, Initial residual = 1.08437e-16, Final residual = 1.08437e-16, No Iterations 0
ExecutionTime = 0.02 s  ClockTime = 0 s

Time = 0.00252313

DEBUG cell=0 t=0.00238296→0.00252313 step=0.000140174 V=-1.00023 u1=0.00368414 u2=0.996864 u3=0 Iion=2.96469
DEBUG cell=0 t=0.00238296→0.00252313 step=0.00126157 V=-1.00023 u1=0.00375459 u2=0.996724 u3=0 Iion=2.96475
PIMPLE: iteration 1
DICPCG:  Solving for Vm, Initial residual = 3.4981e-05, Final residual = 5.27407e-17, No Iterations 5
PIMPLE: iteration 2
DICPCG:  Solving for Vm, Initial residual = 1.079e-16, Final residual = 1.079e-16, No Iterations 0
ExecutionTime = 0.02 s  ClockTime = 0 s

Time = 0.00266331

DEBUG cell=0 t=0.00252313→0.00266331 step=0.000140174 V=-1.0003 u1=0.00375459 u2=0.996724 u3=0 Iion=2.96475
DEBUG cell=0 t=0.00252313→0.00266331 step=0.00126157 V=-1.0003 u1=0.00382504 u2=0.996585 u3=0 Iion=2.96482
PIMPLE: iteration 1
DICPCG:  Solving for Vm, Initial residual = 3.49761e-05, Final residual = 5.27333e-17, No Iterations 5
PIMPLE: iteration 2
DICPCG:  Solving for Vm, Initial residual = 1.07953e-16, Final residual = 1.07953e-16, No Iterations 0
ExecutionTime = 0.03 s  ClockTime = 0 s

Time = 0.00280348

DEBUG cell=0 t=0.00266331→0.00280348 step=0.000140174 V=-1.00037 u1=0.00382504 u2=0.996585 u3=0 Iion=2.96482
DEBUG cell=0 t=0.00266331→0.00280348 step=0.00126157 V=-1.00037 u1=0.0038955 u2=0.996446 u3=0 Iion=2.96489
PIMPLE: iteration 1
DICPCG:  Solving for Vm, Initial residual = 3.49712e-05, Final residual = 5.2726e-17, No Iterations 5
PIMPLE: iteration 2
DICPCG:  Solving for Vm, Initial residual = 1.0909e-16, Final residual = 1.0909e-16, No Iterations 0
ExecutionTime = 0.03 s  ClockTime = 0 s

Time = 0.00294365

DEBUG cell=0 t=0.00280348→0.00294365 step=0.000140174 V=-1.00044 u1=0.0038955 u2=0.996446 u3=0 Iion=2.96489
DEBUG cell=0 t=0.00280348→0.00294365 step=0.00126157 V=-1.00044 u1=0.00396597 u2=0.996306 u3=0 Iion=2.96496
PIMPLE: iteration 1
DICPCG:  Solving for Vm, Initial residual = 3.49663e-05, Final residual = 5.27186e-17, No Iterations 5
PIMPLE: iteration 2
DICPCG:  Solving for Vm, Initial residual = 1.08963e-16, Final residual = 1.08963e-16, No Iterations 0
ExecutionTime = 0.03 s  ClockTime = 0 s

Time = 0.00308383

DEBUG cell=0 t=0.00294365→0.00308383 step=0.000140174 V=-1.00051 u1=0.00396597 u2=0.996306 u3=0 Iion=2.96496
DEBUG cell=0 t=0.00294365→0.00308383 step=0.00126157 V=-1.00051 u1=0.00403643 u2=0.996167 u3=0 Iion=2.96503
PIMPLE: iteration 1
DICPCG:  Solving for Vm, Initial residual = 3.49614e-05, Final residual = 5.27112e-17, No Iterations 5
PIMPLE: iteration 2
DICPCG:  Solving for Vm, Initial residual = 1.06904e-16, Final residual = 1.06904e-16, No Iterations 0
ExecutionTime = 0.03 s  ClockTime = 0 s

Time = 0.003224

DEBUG cell=0 t=0.00308383→0.003224 step=0.000140174 V=-1.00058 u1=0.00403643 u2=0.996167 u3=0 Iion=2.96503
DEBUG cell=0 t=0.00308383→0.003224 step=0.00126157 V=-1.00058 u1=0.00410691 u2=0.996028 u3=0 Iion=2.96509
PIMPLE: iteration 1
DICPCG:  Solving for Vm, Initial residual = 3.49565e-05, Final residual = 5.27039e-17, No Iterations 5
PIMPLE: iteration 2
DICPCG:  Solving for Vm, Initial residual = 1.06801e-16, Final residual = 1.06801e-16, No Iterations 0
ExecutionTime = 0.03 s  ClockTime = 0 s

Time = 0.00336418

DEBUG cell=0 t=0.003224→0.00336418 step=0.000140174 V=-1.00065 u1=0.00410691 u2=0.996028 u3=0 Iion=2.96509
DEBUG cell=0 t=0.003224→0.00336418 step=0.00126157 V=-1.00065 u1=0.00417739 u2=0.995889 u3=0 Iion=2.96516
PIMPLE: iteration 1
DICPCG:  Solving for Vm, Initial residual = 3.49517e-05, Final residual = 5.26965e-17, No Iterations 5
PIMPLE: iteration 2
DICPCG:  Solving for Vm, Initial residual = 1.07054e-16, Final residual = 1.07054e-16, No Iterations 0
ExecutionTime = 0.03 s  ClockTime = 0 s

Time = 0.00350435

DEBUG cell=0 t=0.00336418→0.00350435 step=0.000140174 V=-1.00072 u1=0.00417739 u2=0.995889 u3=0 Iion=2.96516
DEBUG cell=0 t=0.00336418→0.00350435 step=0.00126157 V=-1.00072 u1=0.00424787 u2=0.99575 u3=0 Iion=2.96523
PIMPLE: iteration 1
DICPCG:  Solving for Vm, Initial residual = 3.49468e-05, Final residual = 5.26892e-17, No Iterations 5
PIMPLE: iteration 2
DICPCG:  Solving for Vm, Initial residual = 1.07985e-16, Final residual = 1.07985e-16, No Iterations 0
ExecutionTime = 0.03 s  ClockTime = 0 s

Time = 0.00364452

DEBUG cell=0 t=0.00350435→0.00364452 step=0.000140174 V=-1.00079 u1=0.00424787 u2=0.99575 u3=0 Iion=2.96523
DEBUG cell=0 t=0.00350435→0.00364452 step=0.00126157 V=-1.00079 u1=0.00431836 u2=0.995611 u3=0 Iion=2.9653
PIMPLE: iteration 1
DICPCG:  Solving for Vm, Initial residual = 3.49419e-05, Final residual = 5.26818e-17, No Iterations 5
PIMPLE: iteration 2
DICPCG:  Solving for Vm, Initial residual = 1.06794e-16, Final residual = 1.06794e-16, No Iterations 0
ExecutionTime = 0.03 s  ClockTime = 0 s

Time = 0.0037847

DEBUG cell=0 t=0.00364452→0.0037847 step=0.000140174 V=-1.00086 u1=0.00431836 u2=0.995611 u3=0 Iion=2.9653
DEBUG cell=0 t=0.00364452→0.0037847 step=0.00126157 V=-1.00086 u1=0.00438885 u2=0.995472 u3=0 Iion=2.96537
PIMPLE: iteration 1
DICPCG:  Solving for Vm, Initial residual = 3.4937e-05, Final residual = 5.26745e-17, No Iterations 5
PIMPLE: iteration 2
DICPCG:  Solving for Vm, Initial residual = 1.07413e-16, Final residual = 1.07413e-16, No Iterations 0
ExecutionTime = 0.03 s  ClockTime = 0 s

Time = 0.00392487

DEBUG cell=0 t=0.0037847→0.00392487 step=0.000140174 V=-1.00093 u1=0.00438885 u2=0.995472 u3=0 Iion=2.96537
DEBUG cell=0 t=0.0037847→0.00392487 step=0.00126157 V=-1.00093 u1=0.00445935 u2=0.995333 u3=0 Iion=2.96543
PIMPLE: iteration 1
DICPCG:  Solving for Vm, Initial residual = 3.49322e-05, Final residual = 5.26671e-17, No Iterations 5
PIMPLE: iteration 2
DICPCG:  Solving for Vm, Initial residual = 1.07959e-16, Final residual = 1.07959e-16, No Iterations 0
ExecutionTime = 0.03 s  ClockTime = 0 s

Time = 0.00406505

DEBUG cell=0 t=0.00392487→0.00406505 step=0.000140174 V=-1.001 u1=0.00445935 u2=0.995333 u3=0 Iion=2.96543
DEBUG cell=0 t=0.00392487→0.00406505 step=0.00126157 V=-1.001 u1=0.00452985 u2=0.995194 u3=0 Iion=2.9655
PIMPLE: iteration 1
DICPCG:  Solving for Vm, Initial residual = 3.49273e-05, Final residual = 5.26598e-17, No Iterations 5
PIMPLE: iteration 2
DICPCG:  Solving for Vm, Initial residual = 1.07393e-16, Final residual = 1.07393e-16, No Iterations 0
ExecutionTime = 0.03 s  ClockTime = 0 s

Time = 0.00420522

DEBUG cell=0 t=0.00406505→0.00420522 step=0.000140174 V=-1.00107 u1=0.00452985 u2=0.995194 u3=0 Iion=2.9655
DEBUG cell=0 t=0.00406505→0.00420522 step=0.00126157 V=-1.00107 u1=0.00460036 u2=0.995055 u3=0 Iion=2.96557
PIMPLE: iteration 1
DICPCG:  Solving for Vm, Initial residual = 3.49224e-05, Final residual = 5.26524e-17, No Iterations 5
PIMPLE: iteration 2
DICPCG:  Solving for Vm, Initial residual = 1.0683e-16, Final residual = 1.0683e-16, No Iterations 0
ExecutionTime = 0.03 s  ClockTime = 0 s

Time = 0.00434539

DEBUG cell=0 t=0.00420522→0.00434539 step=0.000140174 V=-1.00114 u1=0.00460036 u2=0.995055 u3=0 Iion=2.96557
DEBUG cell=0 t=0.00420522→0.00434539 step=0.00126157 V=-1.00114 u1=0.00467087 u2=0.994916 u3=0 Iion=2.96564
PIMPLE: iteration 1
DICPCG:  Solving for Vm, Initial residual = 3.49175e-05, Final residual = 5.26451e-17, No Iterations 5
PIMPLE: iteration 2
DICPCG:  Solving for Vm, Initial residual = 1.09468e-16, Final residual = 1.09468e-16, No Iterations 0
ExecutionTime = 0.03 s  ClockTime = 0 s

Time = 0.00448557

DEBUG cell=0 t=0.00434539→0.00448557 step=0.000140174 V=-1.00121 u1=0.00467087 u2=0.994916 u3=0 Iion=2.96564
DEBUG cell=0 t=0.00434539→0.00448557 step=0.00126157 V=-1.00121 u1=0.00474139 u2=0.994777 u3=0 Iion=2.96571
PIMPLE: iteration 1
DICPCG:  Solving for Vm, Initial residual = 3.49127e-05, Final residual = 5.26377e-17, No Iterations 5
PIMPLE: iteration 2
DICPCG:  Solving for Vm, Initial residual = 1.07472e-16, Final residual = 1.07472e-16, No Iterations 0
ExecutionTime = 0.03 s  ClockTime = 0 s

Time = 0.00462574

DEBUG cell=0 t=0.00448557→0.00462574 step=0.000140174 V=-1.00128 u1=0.00474139 u2=0.994777 u3=0 Iion=2.96571
DEBUG cell=0 t=0.00448557→0.00462574 step=0.00126157 V=-1.00128 u1=0.00481191 u2=0.994638 u3=0 Iion=2.96577
PIMPLE: iteration 1
DICPCG:  Solving for Vm, Initial residual = 3.49078e-05, Final residual = 5.26304e-17, No Iterations 5
PIMPLE: iteration 2
DICPCG:  Solving for Vm, Initial residual = 1.06485e-16, Final residual = 1.06485e-16, No Iterations 0
ExecutionTime = 0.04 s  ClockTime = 0 s

Time = 0.00476592

DEBUG cell=0 t=0.00462574→0.00476592 step=0.000140174 V=-1.00135 u1=0.00481191 u2=0.994638 u3=0 Iion=2.96577
DEBUG cell=0 t=0.00462574→0.00476592 step=0.00126157 V=-1.00135 u1=0.00488244 u2=0.994499 u3=0 Iion=2.96584
PIMPLE: iteration 1
DICPCG:  Solving for Vm, Initial residual = 3.49029e-05, Final residual = 5.26231e-17, No Iterations 5
PIMPLE: iteration 2
DICPCG:  Solving for Vm, Initial residual = 1.08927e-16, Final residual = 1.08927e-16, No Iterations 0
ExecutionTime = 0.04 s  ClockTime = 0 s

Time = 0.00490609

DEBUG cell=0 t=0.00476592→0.00490609 step=0.000140174 V=-1.00142 u1=0.00488244 u2=0.994499 u3=0 Iion=2.96584
DEBUG cell=0 t=0.00476592→0.00490609 step=0.00126157 V=-1.00142 u1=0.00495297 u2=0.994361 u3=0 Iion=2.96591
PIMPLE: iteration 1
DICPCG:  Solving for Vm, Initial residual = 3.48981e-05, Final residual = 5.26157e-17, No Iterations 5
PIMPLE: iteration 2
DICPCG:  Solving for Vm, Initial residual = 1.08648e-16, Final residual = 1.08648e-16, No Iterations 0
ExecutionTime = 0.04 s  ClockTime = 0 s

Time = 0.00504626

DEBUG cell=0 t=0.00490609→0.00504626 step=0.000140174 V=-1.00149 u1=0.00495297 u2=0.994361 u3=0 Iion=2.96591
DEBUG cell=0 t=0.00490609→0.00504626 step=0.00126157 V=-1.00149 u1=0.00502351 u2=0.994222 u3=0 Iion=2.96598
PIMPLE: iteration 1
DICPCG:  Solving for Vm, Initial residual = 3.48932e-05, Final residual = 5.26084e-17, No Iterations 5
PIMPLE: iteration 2
DICPCG:  Solving for Vm, Initial residual = 1.07968e-16, Final residual = 1.07968e-16, No Iterations 0
ExecutionTime = 0.04 s  ClockTime = 0 s

Time = 0.00518644

DEBUG cell=0 t=0.00504626→0.00518644 step=0.000140174 V=-1.00156 u1=0.00502351 u2=0.994222 u3=0 Iion=2.96598
DEBUG cell=0 t=0.00504626→0.00518644 step=0.00126157 V=-1.00156 u1=0.00509405 u2=0.994083 u3=0 Iion=2.96605
PIMPLE: iteration 1
DICPCG:  Solving for Vm, Initial residual = 3.48883e-05, Final residual = 5.26011e-17, No Iterations 5
PIMPLE: iteration 2
DICPCG:  Solving for Vm, Initial residual = 1.05737e-16, Final residual = 1.05737e-16, No Iterations 0
ExecutionTime = 0.04 s  ClockTime = 0 s

Time = 0.00532661

DEBUG cell=0 t=0.00518644→0.00532661 step=0.000140174 V=-1.00163 u1=0.00509405 u2=0.994083 u3=0 Iion=2.96605
DEBUG cell=0 t=0.00518644→0.00532661 step=0.00126157 V=-1.00163 u1=0.0051646 u2=0.993945 u3=0 Iion=2.96611
PIMPLE: iteration 1
DICPCG:  Solving for Vm, Initial residual = 3.48835e-05, Final residual = 5.25937e-17, No Iterations 5
PIMPLE: iteration 2
DICPCG:  Solving for Vm, Initial residual = 1.06529e-16, Final residual = 1.06529e-16, No Iterations 0
ExecutionTime = 0.04 s  ClockTime = 0 s

Time = 0.00546679

DEBUG cell=0 t=0.00532661→0.00546679 step=0.000140174 V=-1.0017 u1=0.0051646 u2=0.993945 u3=0 Iion=2.96611
DEBUG cell=0 t=0.00532661→0.00546679 step=0.00126157 V=-1.0017 u1=0.00523515 u2=0.993806 u3=0 Iion=2.96618
PIMPLE: iteration 1
DICPCG:  Solving for Vm, Initial residual = 3.48786e-05, Final residual = 5.25864e-17, No Iterations 5
PIMPLE: iteration 2
DICPCG:  Solving for Vm, Initial residual = 1.08517e-16, Final residual = 1.08517e-16, No Iterations 0
ExecutionTime = 0.04 s  ClockTime = 0 s

Time = 0.00560696

DEBUG cell=0 t=0.00546679→0.00560696 step=0.000140174 V=-1.00177 u1=0.00523515 u2=0.993806 u3=0 Iion=2.96618
DEBUG cell=0 t=0.00546679→0.00560696 step=0.00126157 V=-1.00177 u1=0.0053057 u2=0.993668 u3=0 Iion=2.96625
PIMPLE: iteration 1
DICPCG:  Solving for Vm, Initial residual = 3.48738e-05, Final residual = 5.25791e-17, No Iterations 5
PIMPLE: iteration 2
DICPCG:  Solving for Vm, Initial residual = 1.06174e-16, Final residual = 1.06174e-16, No Iterations 0
ExecutionTime = 0.04 s  ClockTime = 0 s

Time = 0.00574713

DEBUG cell=0 t=0.00560696→0.00574713 step=0.000140174 V=-1.00183 u1=0.0053057 u2=0.993668 u3=0 Iion=2.96625
DEBUG cell=0 t=0.00560696→0.00574713 step=0.00126157 V=-1.00183 u1=0.00537627 u2=0.993529 u3=0 Iion=2.96632
PIMPLE: iteration 1
DICPCG:  Solving for Vm, Initial residual = 3.48689e-05, Final residual = 5.25718e-17, No Iterations 5
PIMPLE: iteration 2
DICPCG:  Solving for Vm, Initial residual = 1.07124e-16, Final residual = 1.07124e-16, No Iterations 0
ExecutionTime = 0.04 s  ClockTime = 0 s

Time = 0.00588731

DEBUG cell=0 t=0.00574713→0.00588731 step=0.000140174 V=-1.0019 u1=0.00537627 u2=0.993529 u3=0 Iion=2.96632
DEBUG cell=0 t=0.00574713→0.00588731 step=0.00126157 V=-1.0019 u1=0.00544683 u2=0.993391 u3=0 Iion=2.96639
PIMPLE: iteration 1
DICPCG:  Solving for Vm, Initial residual = 3.48641e-05, Final residual = 5.25644e-17, No Iterations 5
PIMPLE: iteration 2
DICPCG:  Solving for Vm, Initial residual = 1.06515e-16, Final residual = 1.06515e-16, No Iterations 0
ExecutionTime = 0.04 s  ClockTime = 0 s

Time = 0.00602748

DEBUG cell=0 t=0.00588731→0.00602748 step=0.000140174 V=-1.00197 u1=0.00544683 u2=0.993391 u3=0 Iion=2.96639
DEBUG cell=0 t=0.00588731→0.00602748 step=0.00126157 V=-1.00197 u1=0.0055174 u2=0.993252 u3=0 Iion=2.96645
PIMPLE: iteration 1
DICPCG:  Solving for Vm, Initial residual = 3.48592e-05, Final residual = 5.25571e-17, No Iterations 5
PIMPLE: iteration 2
DICPCG:  Solving for Vm, Initial residual = 1.07518e-16, Final residual = 1.07518e-16, No Iterations 0
ExecutionTime = 0.04 s  ClockTime = 0 s

Time = 0.00616766

DEBUG cell=0 t=0.00602748→0.00616766 step=0.000140174 V=-1.00204 u1=0.0055174 u2=0.993252 u3=0 Iion=2.96645
DEBUG cell=0 t=0.00602748→0.00616766 step=0.00126157 V=-1.00204 u1=0.00558798 u2=0.993114 u3=0 Iion=2.96652
PIMPLE: iteration 1
DICPCG:  Solving for Vm, Initial residual = 3.48544e-05, Final residual = 5.25498e-17, No Iterations 5
PIMPLE: iteration 2
DICPCG:  Solving for Vm, Initial residual = 1.0764e-16, Final residual = 1.0764e-16, No Iterations 0
ExecutionTime = 0.04 s  ClockTime = 0 s

Time = 0.00630783

DEBUG cell=0 t=0.00616766→0.00630783 step=0.000140174 V=-1.00211 u1=0.00558798 u2=0.993114 u3=0 Iion=2.96652
DEBUG cell=0 t=0.00616766→0.00630783 step=0.00126157 V=-1.00211 u1=0.00565856 u2=0.992976 u3=0 Iion=2.96659
PIMPLE: iteration 1
DICPCG:  Solving for Vm, Initial residual = 3.48495e-05, Final residual = 5.25425e-17, No Iterations 5
PIMPLE: iteration 2
DICPCG:  Solving for Vm, Initial residual = 1.06687e-16, Final residual = 1.06687e-16, No Iterations 0
ExecutionTime = 0.04 s  ClockTime = 0 s

Time = 0.006448

DEBUG cell=0 t=0.00630783→0.006448 step=0.000140174 V=-1.00218 u1=0.00565856 u2=0.992976 u3=0 Iion=2.96659
DEBUG cell=0 t=0.00630783→0.006448 step=0.00126157 V=-1.00218 u1=0.00572915 u2=0.992837 u3=0 Iion=2.96666
PIMPLE: iteration 1
DICPCG:  Solving for Vm, Initial residual = 3.48447e-05, Final residual = 5.25352e-17, No Iterations 5
PIMPLE: iteration 2
DICPCG:  Solving for Vm, Initial residual = 1.06695e-16, Final residual = 1.06695e-16, No Iterations 0
ExecutionTime = 0.04 s  ClockTime = 0 s

Time = 0.00658818

DEBUG cell=0 t=0.006448→0.00658818 step=0.000140174 V=-1.00225 u1=0.00572915 u2=0.992837 u3=0 Iion=2.96666
DEBUG cell=0 t=0.006448→0.00658818 step=0.00126157 V=-1.00225 u1=0.00579974 u2=0.992699 u3=0 Iion=2.96673
PIMPLE: iteration 1
DICPCG:  Solving for Vm, Initial residual = 3.48398e-05, Final residual = 5.25279e-17, No Iterations 5
PIMPLE: iteration 2
DICPCG:  Solving for Vm, Initial residual = 1.07092e-16, Final residual = 1.07092e-16, No Iterations 0
ExecutionTime = 0.05 s  ClockTime = 0 s

Time = 0.00672835

DEBUG cell=0 t=0.00658818→0.00672835 step=0.000140174 V=-1.00232 u1=0.00579974 u2=0.992699 u3=0 Iion=2.96673
DEBUG cell=0 t=0.00658818→0.00672835 step=0.00126157 V=-1.00232 u1=0.00587033 u2=0.992561 u3=0 Iion=2.9668
PIMPLE: iteration 1
DICPCG:  Solving for Vm, Initial residual = 3.4835e-05, Final residual = 5.25206e-17, No Iterations 5
PIMPLE: iteration 2
DICPCG:  Solving for Vm, Initial residual = 1.08726e-16, Final residual = 1.08726e-16, No Iterations 0
ExecutionTime = 0.05 s  ClockTime = 0 s

Time = 0.00686853

DEBUG cell=0 t=0.00672835→0.00686853 step=0.000140174 V=-1.00239 u1=0.00587033 u2=0.992561 u3=0 Iion=2.9668
DEBUG cell=0 t=0.00672835→0.00686853 step=0.00126157 V=-1.00239 u1=0.00594093 u2=0.992423 u3=0 Iion=2.96686
PIMPLE: iteration 1
DICPCG:  Solving for Vm, Initial residual = 3.48301e-05, Final residual = 5.25133e-17, No Iterations 5
PIMPLE: iteration 2
DICPCG:  Solving for Vm, Initial residual = 1.06589e-16, Final residual = 1.06589e-16, No Iterations 0
ExecutionTime = 0.05 s  ClockTime = 0 s

Time = 0.0070087

DEBUG cell=0 t=0.00686853→0.0070087 step=0.000140174 V=-1.00246 u1=0.00594093 u2=0.992423 u3=0 Iion=2.96686
DEBUG cell=0 t=0.00686853→0.0070087 step=0.00126157 V=-1.00246 u1=0.00601154 u2=0.992285 u3=0 Iion=2.96693
PIMPLE: iteration 1
DICPCG:  Solving for Vm, Initial residual = 3.48253e-05, Final residual = 5.2506e-17, No Iterations 5
PIMPLE: iteration 2
DICPCG:  Solving for Vm, Initial residual = 1.082e-16, Final residual = 1.082e-16, No Iterations 0
ExecutionTime = 0.05 s  ClockTime = 0 s

Time = 0.00714887

DEBUG cell=0 t=0.0070087→0.00714887 step=0.000140174 V=-1.00253 u1=0.00601154 u2=0.992285 u3=0 Iion=2.96693
DEBUG cell=0 t=0.0070087→0.00714887 step=0.00126157 V=-1.00253 u1=0.00608215 u2=0.992147 u3=0 Iion=2.967
PIMPLE: iteration 1
DICPCG:  Solving for Vm, Initial residual = 3.48204e-05, Final residual = 5.24987e-17, No Iterations 5
PIMPLE: iteration 2
DICPCG:  Solving for Vm, Initial residual = 1.08179e-16, Final residual = 1.08179e-16, No Iterations 0
ExecutionTime = 0.05 s  ClockTime = 0 s

Time = 0.00728905

DEBUG cell=0 t=0.00714887→0.00728905 step=0.000140174 V=-1.0026 u1=0.00608215 u2=0.992147 u3=0 Iion=2.967
DEBUG cell=0 t=0.00714887→0.00728905 step=0.00126157 V=-1.0026 u1=0.00615276 u2=0.992008 u3=0 Iion=2.96707
PIMPLE: iteration 1
DICPCG:  Solving for Vm, Initial residual = 3.48156e-05, Final residual = 5.24914e-17, No Iterations 5
PIMPLE: iteration 2
DICPCG:  Solving for Vm, Initial residual = 1.07307e-16, Final residual = 1.07307e-16, No Iterations 0
ExecutionTime = 0.05 s  ClockTime = 0 s

Time = 0.00742922

DEBUG cell=0 t=0.00728905→0.00742922 step=0.000140174 V=-1.00267 u1=0.00615276 u2=0.992008 u3=0 Iion=2.96707
DEBUG cell=0 t=0.00728905→0.00742922 step=0.00126157 V=-1.00267 u1=0.00622338 u2=0.99187 u3=0 Iion=2.96714
PIMPLE: iteration 1
DICPCG:  Solving for Vm, Initial residual = 3.48107e-05, Final residual = 5.24841e-17, No Iterations 5
PIMPLE: iteration 2
DICPCG:  Solving for Vm, Initial residual = 1.07278e-16, Final residual = 1.07278e-16, No Iterations 0
ExecutionTime = 0.05 s  ClockTime = 0 s

Time = 0.0075694

DEBUG cell=0 t=0.00742922→0.0075694 step=0.000140174 V=-1.00274 u1=0.00622338 u2=0.99187 u3=0 Iion=2.96714
DEBUG cell=0 t=0.00742922→0.0075694 step=0.00126157 V=-1.00274 u1=0.00629401 u2=0.991732 u3=0 Iion=2.9672
PIMPLE: iteration 1
DICPCG:  Solving for Vm, Initial residual = 3.48059e-05, Final residual = 5.24768e-17, No Iterations 5
PIMPLE: iteration 2
DICPCG:  Solving for Vm, Initial residual = 1.08436e-16, Final residual = 1.08436e-16, No Iterations 0
ExecutionTime = 0.05 s  ClockTime = 0 s

Time = 0.00770957

DEBUG cell=0 t=0.0075694→0.00770957 step=0.000140174 V=-1.00281 u1=0.00629401 u2=0.991732 u3=0 Iion=2.9672
DEBUG cell=0 t=0.0075694→0.00770957 step=0.00126157 V=-1.00281 u1=0.00636464 u2=0.991595 u3=0 Iion=2.96727
PIMPLE: iteration 1
DICPCG:  Solving for Vm, Initial residual = 3.48011e-05, Final residual = 5.24695e-17, No Iterations 5
PIMPLE: iteration 2
DICPCG:  Solving for Vm, Initial residual = 1.08387e-16, Final residual = 1.08387e-16, No Iterations 0
ExecutionTime = 0.05 s  ClockTime = 0 s

Time = 0.00784974

DEBUG cell=0 t=0.00770957→0.00784974 step=0.000140174 V=-1.00288 u1=0.00636464 u2=0.991595 u3=0 Iion=2.96727
DEBUG cell=0 t=0.00770957→0.00784974 step=0.00126157 V=-1.00288 u1=0.00643527 u2=0.991457 u3=0 Iion=2.96734
PIMPLE: iteration 1
DICPCG:  Solving for Vm, Initial residual = 3.47962e-05, Final residual = 5.24622e-17, No Iterations 5
PIMPLE: iteration 2
DICPCG:  Solving for Vm, Initial residual = 1.07376e-16, Final residual = 1.07376e-16, No Iterations 0
ExecutionTime = 0.05 s  ClockTime = 0 s

Time = 0.00798992

DEBUG cell=0 t=0.00784974→0.00798992 step=0.000140174 V=-1.00295 u1=0.00643527 u2=0.991457 u3=0 Iion=2.96734
DEBUG cell=0 t=0.00784974→0.00798992 step=0.00126157 V=-1.00295 u1=0.00650591 u2=0.991319 u3=0 Iion=2.96741
PIMPLE: iteration 1
DICPCG:  Solving for Vm, Initial residual = 3.47914e-05, Final residual = 5.24549e-17, No Iterations 5
PIMPLE: iteration 2
DICPCG:  Solving for Vm, Initial residual = 1.0709e-16, Final residual = 1.0709e-16, No Iterations 0
ExecutionTime = 0.05 s  ClockTime = 0 s

Time = 0.00813009

DEBUG cell=0 t=0.00798992→0.00813009 step=0.000140174 V=-1.00302 u1=0.00650591 u2=0.991319 u3=0 Iion=2.96741
DEBUG cell=0 t=0.00798992→0.00813009 step=0.00126157 V=-1.00302 u1=0.00657655 u2=0.991181 u3=0 Iion=2.96748
PIMPLE: iteration 1
DICPCG:  Solving for Vm, Initial residual = 3.47866e-05, Final residual = 5.24476e-17, No Iterations 5
PIMPLE: iteration 2
DICPCG:  Solving for Vm, Initial residual = 1.05978e-16, Final residual = 1.05978e-16, No Iterations 0
ExecutionTime = 0.05 s  ClockTime = 0 s

Time = 0.00827027

DEBUG cell=0 t=0.00813009→0.00827027 step=0.000140174 V=-1.00309 u1=0.00657655 u2=0.991181 u3=0 Iion=2.96748
DEBUG cell=0 t=0.00813009→0.00827027 step=0.00126157 V=-1.00309 u1=0.0066472 u2=0.991043 u3=0 Iion=2.96755
PIMPLE: iteration 1
DICPCG:  Solving for Vm, Initial residual = 3.47817e-05, Final residual = 5.24403e-17, No Iterations 5
PIMPLE: iteration 2
DICPCG:  Solving for Vm, Initial residual = 1.05926e-16, Final residual = 1.05926e-16, No Iterations 0
ExecutionTime = 0.05 s  ClockTime = 0 s

Time = 0.00841044

DEBUG cell=0 t=0.00827027→0.00841044 step=0.000140174 V=-1.00316 u1=0.0066472 u2=0.991043 u3=0 Iion=2.96755
DEBUG cell=0 t=0.00827027→0.00841044 step=0.00126157 V=-1.00316 u1=0.00671786 u2=0.990905 u3=0 Iion=2.96761
PIMPLE: iteration 1
DICPCG:  Solving for Vm, Initial residual = 3.47769e-05, Final residual = 5.2433e-17, No Iterations 5
PIMPLE: iteration 2
DICPCG:  Solving for Vm, Initial residual = 1.06388e-16, Final residual = 1.06388e-16, No Iterations 0
ExecutionTime = 0.05 s  ClockTime = 0 s

Time = 0.00855061

DEBUG cell=0 t=0.00841044→0.00855061 step=0.000140174 V=-1.00323 u1=0.00671786 u2=0.990905 u3=0 Iion=2.96761
DEBUG cell=0 t=0.00841044→0.00855061 step=0.00126157 V=-1.00323 u1=0.00678851 u2=0.990768 u3=0 Iion=2.96768
PIMPLE: iteration 1
DICPCG:  Solving for Vm, Initial residual = 3.47721e-05, Final residual = 5.24257e-17, No Iterations 5
PIMPLE: iteration 2
DICPCG:  Solving for Vm, Initial residual = 1.05896e-16, Final residual = 1.05896e-16, No Iterations 0
ExecutionTime = 0.05 s  ClockTime = 0 s

Time = 0.00869079

DEBUG cell=0 t=0.00855061→0.00869079 step=0.000140174 V=-1.0033 u1=0.00678851 u2=0.990768 u3=0 Iion=2.96768
DEBUG cell=0 t=0.00855061→0.00869079 step=0.00126157 V=-1.0033 u1=0.00685918 u2=0.99063 u3=0 Iion=2.96775
PIMPLE: iteration 1
DICPCG:  Solving for Vm, Initial residual = 3.47672e-05, Final residual = 5.24185e-17, No Iterations 5
PIMPLE: iteration 2
DICPCG:  Solving for Vm, Initial residual = 1.07639e-16, Final residual = 1.07639e-16, No Iterations 0
ExecutionTime = 0.06 s  ClockTime = 0 s

Time = 0.00883096

DEBUG cell=0 t=0.00869079→0.00883096 step=0.000140174 V=-1.00337 u1=0.00685918 u2=0.99063 u3=0 Iion=2.96775
DEBUG cell=0 t=0.00869079→0.00883096 step=0.00126157 V=-1.00337 u1=0.00692985 u2=0.990492 u3=0 Iion=2.96782
PIMPLE: iteration 1
DICPCG:  Solving for Vm, Initial residual = 3.47624e-05, Final residual = 5.24112e-17, No Iterations 5
PIMPLE: iteration 2
DICPCG:  Solving for Vm, Initial residual = 1.06958e-16, Final residual = 1.06958e-16, No Iterations 0
ExecutionTime = 0.06 s  ClockTime = 0 s

Time = 0.00897114

DEBUG cell=0 t=0.00883096→0.00897114 step=0.000140174 V=-1.00344 u1=0.00692985 u2=0.990492 u3=0 Iion=2.96782
DEBUG cell=0 t=0.00883096→0.00897114 step=0.00126157 V=-1.00344 u1=0.00700052 u2=0.990355 u3=0 Iion=2.96789
PIMPLE: iteration 1
DICPCG:  Solving for Vm, Initial residual = 3.47576e-05, Final residual = 5.24039e-17, No Iterations 5
PIMPLE: iteration 2
DICPCG:  Solving for Vm, Initial residual = 1.0734e-16, Final residual = 1.0734e-16, No Iterations 0
ExecutionTime = 0.06 s  ClockTime = 0 s

Time = 0.00911131

DEBUG cell=0 t=0.00897114→0.00911131 step=0.000140174 V=-1.00351 u1=0.00700052 u2=0.990355 u3=0 Iion=2.96789
DEBUG cell=0 t=0.00897114→0.00911131 step=0.00126157 V=-1.00351 u1=0.0070712 u2=0.990217 u3=0 Iion=2.96795
PIMPLE: iteration 1
DICPCG:  Solving for Vm, Initial residual = 3.47528e-05, Final residual = 5.23966e-17, No Iterations 5
PIMPLE: iteration 2
DICPCG:  Solving for Vm, Initial residual = 1.07361e-16, Final residual = 1.07361e-16, No Iterations 0
ExecutionTime = 0.06 s  ClockTime = 0 s

Time = 0.00925148

DEBUG cell=0 t=0.00911131→0.00925148 step=0.000140174 V=-1.00358 u1=0.0070712 u2=0.990217 u3=0 Iion=2.96795
DEBUG cell=0 t=0.00911131→0.00925148 step=0.00126157 V=-1.00358 u1=0.00714188 u2=0.99008 u3=0 Iion=2.96802
PIMPLE: iteration 1
DICPCG:  Solving for Vm, Initial residual = 3.47479e-05, Final residual = 5.23894e-17, No Iterations 5
PIMPLE: iteration 2
DICPCG:  Solving for Vm, Initial residual = 1.06286e-16, Final residual = 1.06286e-16, No Iterations 0
ExecutionTime = 0.06 s  ClockTime = 0 s

Time = 0.00939166

DEBUG cell=0 t=0.00925148→0.00939166 step=0.000140174 V=-1.00365 u1=0.00714188 u2=0.99008 u3=0 Iion=2.96802
DEBUG cell=0 t=0.00925148→0.00939166 step=0.00126157 V=-1.00365 u1=0.00721257 u2=0.989942 u3=0 Iion=2.96809
PIMPLE: iteration 1
DICPCG:  Solving for Vm, Initial residual = 3.47431e-05, Final residual = 5.23821e-17, No Iterations 5
PIMPLE: iteration 2
DICPCG:  Solving for Vm, Initial residual = 1.07423e-16, Final residual = 1.07423e-16, No Iterations 0
ExecutionTime = 0.06 s  ClockTime = 0 s

Time = 0.00953183

DEBUG cell=0 t=0.00939166→0.00953183 step=0.000140174 V=-1.00372 u1=0.00721257 u2=0.989942 u3=0 Iion=2.96809
DEBUG cell=0 t=0.00939166→0.00953183 step=0.00126157 V=-1.00372 u1=0.00728326 u2=0.989805 u3=0 Iion=2.96816
PIMPLE: iteration 1
DICPCG:  Solving for Vm, Initial residual = 3.47383e-05, Final residual = 5.23748e-17, No Iterations 5
PIMPLE: iteration 2
DICPCG:  Solving for Vm, Initial residual = 1.07388e-16, Final residual = 1.07388e-16, No Iterations 0
ExecutionTime = 0.06 s  ClockTime = 0 s

Time = 0.00967201

DEBUG cell=0 t=0.00953183→0.00967201 step=0.000140174 V=-1.00379 u1=0.00728326 u2=0.989805 u3=0 Iion=2.96816
DEBUG cell=0 t=0.00953183→0.00967201 step=0.00126157 V=-1.00379 u1=0.00735396 u2=0.989667 u3=0 Iion=2.96823
PIMPLE: iteration 1
DICPCG:  Solving for Vm, Initial residual = 3.47335e-05, Final residual = 5.23676e-17, No Iterations 5
PIMPLE: iteration 2
DICPCG:  Solving for Vm, Initial residual = 1.06372e-16, Final residual = 1.06372e-16, No Iterations 0
ExecutionTime = 0.06 s  ClockTime = 0 s

Time = 0.00981218

DEBUG cell=0 t=0.00967201→0.00981218 step=0.000140174 V=-1.00386 u1=0.00735396 u2=0.989667 u3=0 Iion=2.96823
DEBUG cell=0 t=0.00967201→0.00981218 step=0.00126157 V=-1.00386 u1=0.00742466 u2=0.98953 u3=0 Iion=2.9683
PIMPLE: iteration 1
DICPCG:  Solving for Vm, Initial residual = 3.47287e-05, Final residual = 5.23603e-17, No Iterations 5
PIMPLE: iteration 2
DICPCG:  Solving for Vm, Initial residual = 1.06507e-16, Final residual = 1.06507e-16, No Iterations 0
ExecutionTime = 0.06 s  ClockTime = 0 s

Time = 0.00995235

DEBUG cell=0 t=0.00981218→0.00995235 step=0.000140174 V=-1.00393 u1=0.00742466 u2=0.98953 u3=0 Iion=2.9683
DEBUG cell=0 t=0.00981218→0.00995235 step=0.00126157 V=-1.00393 u1=0.00749537 u2=0.989393 u3=0 Iion=2.96836
PIMPLE: iteration 1
DICPCG:  Solving for Vm, Initial residual = 3.47239e-05, Final residual = 5.2353e-17, No Iterations 5
PIMPLE: iteration 2
DICPCG:  Solving for Vm, Initial residual = 1.06115e-16, Final residual = 1.06115e-16, No Iterations 0
ExecutionTime = 0.06 s  ClockTime = 0 s

Time = 0.0100925

DEBUG cell=0 t=0.00995235→0.0100925 step=0.000140174 V=-1.004 u1=0.00749537 u2=0.989393 u3=0 Iion=2.96836
DEBUG cell=0 t=0.00995235→0.0100925 step=0.00126157 V=-1.004 u1=0.00756608 u2=0.989255 u3=0 Iion=2.96843
PIMPLE: iteration 1
DICPCG:  Solving for Vm, Initial residual = 3.4719e-05, Final residual = 5.23458e-17, No Iterations 5
PIMPLE: iteration 2
DICPCG:  Solving for Vm, Initial residual = 1.07341e-16, Final residual = 1.07341e-16, No Iterations 0
ExecutionTime = 0.06 s  ClockTime = 0 s

Time = 0.0102327

DEBUG cell=0 t=0.0100925→0.0102327 step=0.000140174 V=-1.00407 u1=0.00756608 u2=0.989255 u3=0 Iion=2.96843
DEBUG cell=0 t=0.0100925→0.0102327 step=0.00126157 V=-1.00407 u1=0.0076368 u2=0.989118 u3=0 Iion=2.9685
PIMPLE: iteration 1
DICPCG:  Solving for Vm, Initial residual = 3.47142e-05, Final residual = 5.23385e-17, No Iterations 5
PIMPLE: iteration 2
DICPCG:  Solving for Vm, Initial residual = 1.06676e-16, Final residual = 1.06676e-16, No Iterations 0
ExecutionTime = 0.06 s  ClockTime = 0 s

Time = 0.0103729

DEBUG cell=0 t=0.0102327→0.0103729 step=0.000140174 V=-1.00414 u1=0.0076368 u2=0.989118 u3=0 Iion=2.9685
DEBUG cell=0 t=0.0102327→0.0103729 step=0.00126157 V=-1.00414 u1=0.00770752 u2=0.988981 u3=0 Iion=2.96857
PIMPLE: iteration 1
DICPCG:  Solving for Vm, Initial residual = 3.47094e-05, Final residual = 5.23313e-17, No Iterations 5
PIMPLE: iteration 2
DICPCG:  Solving for Vm, Initial residual = 1.05654e-16, Final residual = 1.05654e-16, No Iterations 0
ExecutionTime = 0.06 s  ClockTime = 0 s

Time = 0.010513

DEBUG cell=0 t=0.0103729→0.010513 step=0.000140174 V=-1.00421 u1=0.00770752 u2=0.988981 u3=0 Iion=2.96857
DEBUG cell=0 t=0.0103729→0.010513 step=0.00126157 V=-1.00421 u1=0.00777824 u2=0.988844 u3=0 Iion=2.96864
PIMPLE: iteration 1
DICPCG:  Solving for Vm, Initial residual = 3.47046e-05, Final residual = 5.2324e-17, No Iterations 5
PIMPLE: iteration 2
DICPCG:  Solving for Vm, Initial residual = 1.06309e-16, Final residual = 1.06309e-16, No Iterations 0
ExecutionTime = 0.06 s  ClockTime = 0 s

Time = 0.0106532

DEBUG cell=0 t=0.010513→0.0106532 step=0.000140174 V=-1.00428 u1=0.00777824 u2=0.988844 u3=0 Iion=2.96864
DEBUG cell=0 t=0.010513→0.0106532 step=0.00126157 V=-1.00428 u1=0.00784898 u2=0.988706 u3=0 Iion=2.96871
PIMPLE: iteration 1
DICPCG:  Solving for Vm, Initial residual = 3.46998e-05, Final residual = 5.23168e-17, No Iterations 5
PIMPLE: iteration 2
DICPCG:  Solving for Vm, Initial residual = 1.0723e-16, Final residual = 1.0723e-16, No Iterations 0
ExecutionTime = 0.06 s  ClockTime = 0 s

Time = 0.0107934

DEBUG cell=0 t=0.0106532→0.0107934 step=0.000140174 V=-1.00435 u1=0.00784898 u2=0.988706 u3=0 Iion=2.96871
DEBUG cell=0 t=0.0106532→0.0107934 step=0.00126157 V=-1.00435 u1=0.00791971 u2=0.988569 u3=0 Iion=2.96877
PIMPLE: iteration 1
DICPCG:  Solving for Vm, Initial residual = 3.4695e-05, Final residual = 5.23095e-17, No Iterations 5
PIMPLE: iteration 2
DICPCG:  Solving for Vm, Initial residual = 1.07282e-16, Final residual = 1.07282e-16, No Iterations 0
ExecutionTime = 0.06 s  ClockTime = 0 s

Time = 0.0109336

DEBUG cell=0 t=0.0107934→0.0109336 step=0.000140174 V=-1.00442 u1=0.00791971 u2=0.988569 u3=0 Iion=2.96877
DEBUG cell=0 t=0.0107934→0.0109336 step=0.00126157 V=-1.00442 u1=0.00799045 u2=0.988432 u3=0 Iion=2.96884
PIMPLE: iteration 1
DICPCG:  Solving for Vm, Initial residual = 3.46902e-05, Final residual = 5.23023e-17, No Iterations 5
PIMPLE: iteration 2
DICPCG:  Solving for Vm, Initial residual = 1.0666e-16, Final residual = 1.0666e-16, No Iterations 0
ExecutionTime = 0.07 s  ClockTime = 0 s

Time = 0.0110737

DEBUG cell=0 t=0.0109336→0.0110737 step=0.000140174 V=-1.00449 u1=0.00799045 u2=0.988432 u3=0 Iion=2.96884
DEBUG cell=0 t=0.0109336→0.0110737 step=0.00126157 V=-1.00449 u1=0.0080612 u2=0.988295 u3=0 Iion=2.96891
PIMPLE: iteration 1
DICPCG:  Solving for Vm, Initial residual = 3.46854e-05, Final residual = 5.2295e-17, No Iterations 5
PIMPLE: iteration 2
DICPCG:  Solving for Vm, Initial residual = 1.07753e-16, Final residual = 1.07753e-16, No Iterations 0
ExecutionTime = 0.07 s  ClockTime = 0 s

Time = 0.0112139

DEBUG cell=0 t=0.0110737→0.0112139 step=0.000140174 V=-1.00456 u1=0.0080612 u2=0.988295 u3=0 Iion=2.96891
DEBUG cell=0 t=0.0110737→0.0112139 step=0.00126157 V=-1.00456 u1=0.00813195 u2=0.988158 u3=0 Iion=2.96898
PIMPLE: iteration 1
DICPCG:  Solving for Vm, Initial residual = 3.46806e-05, Final residual = 5.22878e-17, No Iterations 5
PIMPLE: iteration 2
DICPCG:  Solving for Vm, Initial residual = 1.07363e-16, Final residual = 1.07363e-16, No Iterations 0
ExecutionTime = 0.07 s  ClockTime = 0 s

Time = 0.0113541

DEBUG cell=0 t=0.0112139→0.0113541 step=0.000140174 V=-1.00463 u1=0.00813195 u2=0.988158 u3=0 Iion=2.96898
DEBUG cell=0 t=0.0112139→0.0113541 step=0.00126157 V=-1.00463 u1=0.0082027 u2=0.988021 u3=0 Iion=2.96905
PIMPLE: iteration 1
DICPCG:  Solving for Vm, Initial residual = 3.46758e-05, Final residual = 5.22805e-17, No Iterations 5
PIMPLE: iteration 2
DICPCG:  Solving for Vm, Initial residual = 1.06218e-16, Final residual = 1.06218e-16, No Iterations 0
ExecutionTime = 0.07 s  ClockTime = 0 s

Time = 0.0114943

DEBUG cell=0 t=0.0113541→0.0114943 step=0.000140174 V=-1.0047 u1=0.0082027 u2=0.988021 u3=0 Iion=2.96905
DEBUG cell=0 t=0.0113541→0.0114943 step=0.00126157 V=-1.0047 u1=0.00827346 u2=0.987884 u3=0 Iion=2.96911
PIMPLE: iteration 1
DICPCG:  Solving for Vm, Initial residual = 3.4671e-05, Final residual = 5.22733e-17, No Iterations 5
PIMPLE: iteration 2
DICPCG:  Solving for Vm, Initial residual = 1.06717e-16, Final residual = 1.06717e-16, No Iterations 0
ExecutionTime = 0.07 s  ClockTime = 0 s

Time = 0.0116344

DEBUG cell=0 t=0.0114943→0.0116344 step=0.000140174 V=-1.00477 u1=0.00827346 u2=0.987884 u3=0 Iion=2.96911
DEBUG cell=0 t=0.0114943→0.0116344 step=0.00126157 V=-1.00477 u1=0.00834423 u2=0.987748 u3=0 Iion=2.96918
PIMPLE: iteration 1
DICPCG:  Solving for Vm, Initial residual = 3.46662e-05, Final residual = 5.22661e-17, No Iterations 5
PIMPLE: iteration 2
DICPCG:  Solving for Vm, Initial residual = 1.07371e-16, Final residual = 1.07371e-16, No Iterations 0
ExecutionTime = 0.07 s  ClockTime = 0 s

Time = 0.0117746

DEBUG cell=0 t=0.0116344→0.0117746 step=0.000140174 V=-1.00483 u1=0.00834423 u2=0.987748 u3=0 Iion=2.96918
DEBUG cell=0 t=0.0116344→0.0117746 step=0.00126157 V=-1.00483 u1=0.008415 u2=0.987611 u3=0 Iion=2.96925
PIMPLE: iteration 1
DICPCG:  Solving for Vm, Initial residual = 3.46614e-05, Final residual = 5.22588e-17, No Iterations 5
PIMPLE: iteration 2
DICPCG:  Solving for Vm, Initial residual = 1.07775e-16, Final residual = 1.07775e-16, No Iterations 0
ExecutionTime = 0.07 s  ClockTime = 0 s

Time = 0.0119148

DEBUG cell=0 t=0.0117746→0.0119148 step=0.000140174 V=-1.0049 u1=0.008415 u2=0.987611 u3=0 Iion=2.96925
DEBUG cell=0 t=0.0117746→0.0119148 step=0.00126157 V=-1.0049 u1=0.00848577 u2=0.987474 u3=0 Iion=2.96932
PIMPLE: iteration 1
DICPCG:  Solving for Vm, Initial residual = 3.46566e-05, Final residual = 5.22516e-17, No Iterations 5
PIMPLE: iteration 2
DICPCG:  Solving for Vm, Initial residual = 1.0668e-16, Final residual = 1.0668e-16, No Iterations 0
ExecutionTime = 0.07 s  ClockTime = 0 s

Time = 0.012055

DEBUG cell=0 t=0.0119148→0.012055 step=0.000140174 V=-1.00497 u1=0.00848577 u2=0.987474 u3=0 Iion=2.96932
DEBUG cell=0 t=0.0119148→0.012055 step=0.00126157 V=-1.00497 u1=0.00855655 u2=0.987337 u3=0 Iion=2.96939
PIMPLE: iteration 1
DICPCG:  Solving for Vm, Initial residual = 3.46518e-05, Final residual = 5.22444e-17, No Iterations 5
PIMPLE: iteration 2
DICPCG:  Solving for Vm, Initial residual = 1.07837e-16, Final residual = 1.07837e-16, No Iterations 0
ExecutionTime = 0.07 s  ClockTime = 0 s

Time = 0.0121951

DEBUG cell=0 t=0.012055→0.0121951 step=0.000140174 V=-1.00504 u1=0.00855655 u2=0.987337 u3=0 Iion=2.96939
DEBUG cell=0 t=0.012055→0.0121951 step=0.00126157 V=-1.00504 u1=0.00862734 u2=0.9872 u3=0 Iion=2.96946
PIMPLE: iteration 1
DICPCG:  Solving for Vm, Initial residual = 3.4647e-05, Final residual = 5.22371e-17, No Iterations 5
PIMPLE: iteration 2
DICPCG:  Solving for Vm, Initial residual = 1.07129e-16, Final residual = 1.07129e-16, No Iterations 0
ExecutionTime = 0.07 s  ClockTime = 0 s

Time = 0.0123353

DEBUG cell=0 t=0.0121951→0.0123353 step=0.000140174 V=-1.00511 u1=0.00862734 u2=0.9872 u3=0 Iion=2.96946
DEBUG cell=0 t=0.0121951→0.0123353 step=0.00126157 V=-1.00511 u1=0.00869813 u2=0.987064 u3=0 Iion=2.96952
PIMPLE: iteration 1
DICPCG:  Solving for Vm, Initial residual = 3.46422e-05, Final residual = 5.22299e-17, No Iterations 5
PIMPLE: iteration 2
DICPCG:  Solving for Vm, Initial residual = 1.08217e-16, Final residual = 1.08217e-16, No Iterations 0
ExecutionTime = 0.07 s  ClockTime = 0 s

Time = 0.0124755

DEBUG cell=0 t=0.0123353→0.0124755 step=0.000140174 V=-1.00518 u1=0.00869813 u2=0.987064 u3=0 Iion=2.96952
DEBUG cell=0 t=0.0123353→0.0124755 step=0.00126157 V=-1.00518 u1=0.00876892 u2=0.986927 u3=0 Iion=2.96959
PIMPLE: iteration 1
DICPCG:  Solving for Vm, Initial residual = 3.46374e-05, Final residual = 5.22227e-17, No Iterations 5
PIMPLE: iteration 2
DICPCG:  Solving for Vm, Initial residual = 1.06134e-16, Final residual = 1.06134e-16, No Iterations 0
ExecutionTime = 0.07 s  ClockTime = 0 s

Time = 0.0126157

DEBUG cell=0 t=0.0124755→0.0126157 step=0.000140174 V=-1.00525 u1=0.00876892 u2=0.986927 u3=0 Iion=2.96959
DEBUG cell=0 t=0.0124755→0.0126157 step=0.00126157 V=-1.00525 u1=0.00883972 u2=0.98679 u3=0 Iion=2.96966
PIMPLE: iteration 1
DICPCG:  Solving for Vm, Initial residual = 3.46326e-05, Final residual = 5.22155e-17, No Iterations 5
PIMPLE: iteration 2
DICPCG:  Solving for Vm, Initial residual = 1.08011e-16, Final residual = 1.08011e-16, No Iterations 0
ExecutionTime = 0.07 s  ClockTime = 0 s

Time = 0.0127558

DEBUG cell=0 t=0.0126157→0.0127558 step=0.000140174 V=-1.00532 u1=0.00883972 u2=0.98679 u3=0 Iion=2.96966
DEBUG cell=0 t=0.0126157→0.0127558 step=0.00126157 V=-1.00532 u1=0.00891052 u2=0.986654 u3=0 Iion=2.96973
PIMPLE: iteration 1
DICPCG:  Solving for Vm, Initial residual = 3.46278e-05, Final residual = 5.22082e-17, No Iterations 5
PIMPLE: iteration 2
DICPCG:  Solving for Vm, Initial residual = 1.09287e-16, Final residual = 1.09287e-16, No Iterations 0
ExecutionTime = 0.07 s  ClockTime = 0 s

Time = 0.012896

DEBUG cell=0 t=0.0127558→0.012896 step=0.000140174 V=-1.00539 u1=0.00891052 u2=0.986654 u3=0 Iion=2.96973
DEBUG cell=0 t=0.0127558→0.012896 step=0.00126157 V=-1.00539 u1=0.00898133 u2=0.986517 u3=0 Iion=2.9698
PIMPLE: iteration 1
DICPCG:  Solving for Vm, Initial residual = 3.4623e-05, Final residual = 5.2201e-17, No Iterations 5
PIMPLE: iteration 2
DICPCG:  Solving for Vm, Initial residual = 1.06743e-16, Final residual = 1.06743e-16, No Iterations 0
ExecutionTime = 0.08 s  ClockTime = 0 s

Time = 0.0130362

DEBUG cell=0 t=0.012896→0.0130362 step=0.000140174 V=-1.00546 u1=0.00898133 u2=0.986517 u3=0 Iion=2.9698
DEBUG cell=0 t=0.012896→0.0130362 step=0.00126157 V=-1.00546 u1=0.00905215 u2=0.986381 u3=0 Iion=2.96987
PIMPLE: iteration 1
DICPCG:  Solving for Vm, Initial residual = 3.46182e-05, Final residual = 5.21938e-17, No Iterations 5
PIMPLE: iteration 2
DICPCG:  Solving for Vm, Initial residual = 1.0696e-16, Final residual = 1.0696e-16, No Iterations 0
ExecutionTime = 0.08 s  ClockTime = 0 s

Time = 0.0131764

DEBUG cell=0 t=0.0130362→0.0131764 step=0.000140174 V=-1.00553 u1=0.00905215 u2=0.986381 u3=0 Iion=2.96987
DEBUG cell=0 t=0.0130362→0.0131764 step=0.00126157 V=-1.00553 u1=0.00912296 u2=0.986244 u3=0 Iion=2.96993
PIMPLE: iteration 1
DICPCG:  Solving for Vm, Initial residual = 3.46135e-05, Final residual = 5.21866e-17, No Iterations 5
PIMPLE: iteration 2
DICPCG:  Solving for Vm, Initial residual = 1.08634e-16, Final residual = 1.08634e-16, No Iterations 0
ExecutionTime = 0.08 s  ClockTime = 0 s

Time = 0.0133165

DEBUG cell=0 t=0.0131764→0.0133165 step=0.000140174 V=-1.0056 u1=0.00912296 u2=0.986244 u3=0 Iion=2.96993
DEBUG cell=0 t=0.0131764→0.0133165 step=0.00126157 V=-1.0056 u1=0.00919379 u2=0.986108 u3=0 Iion=2.97
PIMPLE: iteration 1
DICPCG:  Solving for Vm, Initial residual = 3.46087e-05, Final residual = 5.21794e-17, No Iterations 5
PIMPLE: iteration 2
DICPCG:  Solving for Vm, Initial residual = 1.06979e-16, Final residual = 1.06979e-16, No Iterations 0
ExecutionTime = 0.08 s  ClockTime = 0 s

Time = 0.0134567

DEBUG cell=0 t=0.0133165→0.0134567 step=0.000140174 V=-1.00567 u1=0.00919379 u2=0.986108 u3=0 Iion=2.97
DEBUG cell=0 t=0.0133165→0.0134567 step=0.00126157 V=-1.00567 u1=0.00926462 u2=0.985972 u3=0 Iion=2.97007
PIMPLE: iteration 1
DICPCG:  Solving for Vm, Initial residual = 3.46039e-05, Final residual = 5.21722e-17, No Iterations 5
PIMPLE: iteration 2
DICPCG:  Solving for Vm, Initial residual = 1.09579e-16, Final residual = 1.09579e-16, No Iterations 0
ExecutionTime = 0.08 s  ClockTime = 0 s

Time = 0.0135969

DEBUG cell=0 t=0.0134567→0.0135969 step=0.000140174 V=-1.00574 u1=0.00926462 u2=0.985972 u3=0 Iion=2.97007
DEBUG cell=0 t=0.0134567→0.0135969 step=0.00126157 V=-1.00574 u1=0.00933545 u2=0.985835 u3=0 Iion=2.97014
PIMPLE: iteration 1
DICPCG:  Solving for Vm, Initial residual = 3.45991e-05, Final residual = 5.2165e-17, No Iterations 5
PIMPLE: iteration 2
DICPCG:  Solving for Vm, Initial residual = 1.07536e-16, Final residual = 1.07536e-16, No Iterations 0
ExecutionTime = 0.08 s  ClockTime = 0 s

Time = 0.0137371

DEBUG cell=0 t=0.0135969→0.0137371 step=0.000140174 V=-1.00581 u1=0.00933545 u2=0.985835 u3=0 Iion=2.97014
DEBUG cell=0 t=0.0135969→0.0137371 step=0.00126157 V=-1.00581 u1=0.00940629 u2=0.985699 u3=0 Iion=2.97021
PIMPLE: iteration 1
DICPCG:  Solving for Vm, Initial residual = 3.45943e-05, Final residual = 5.21577e-17, No Iterations 5
PIMPLE: iteration 2
DICPCG:  Solving for Vm, Initial residual = 1.06961e-16, Final residual = 1.06961e-16, No Iterations 0
ExecutionTime = 0.08 s  ClockTime = 0 s

Time = 0.0138772

DEBUG cell=0 t=0.0137371→0.0138772 step=0.000140174 V=-1.00588 u1=0.00940629 u2=0.985699 u3=0 Iion=2.97021
DEBUG cell=0 t=0.0137371→0.0138772 step=0.00126157 V=-1.00588 u1=0.00947713 u2=0.985563 u3=0 Iion=2.97028
PIMPLE: iteration 1
DICPCG:  Solving for Vm, Initial residual = 3.45896e-05, Final residual = 5.21505e-17, No Iterations 5
PIMPLE: iteration 2
DICPCG:  Solving for Vm, Initial residual = 1.06794e-16, Final residual = 1.06794e-16, No Iterations 0
ExecutionTime = 0.08 s  ClockTime = 0 s

Time = 0.0140174

DEBUG cell=0 t=0.0138772→0.0140174 step=0.000140174 V=-1.00595 u1=0.00947713 u2=0.985563 u3=0 Iion=2.97028
DEBUG cell=0 t=0.0138772→0.0140174 step=0.00126157 V=-1.00595 u1=0.00954797 u2=0.985426 u3=0 Iion=2.97035
PIMPLE: iteration 1
DICPCG:  Solving for Vm, Initial residual = 3.45848e-05, Final residual = 5.21433e-17, No Iterations 5
PIMPLE: iteration 2
DICPCG:  Solving for Vm, Initial residual = 1.0668e-16, Final residual = 1.0668e-16, No Iterations 0
ExecutionTime = 0.08 s  ClockTime = 0 s

Time = 0.0141576

DEBUG cell=0 t=0.0140174→0.0141576 step=0.000140174 V=-1.00602 u1=0.00954797 u2=0.985426 u3=0 Iion=2.97035
DEBUG cell=0 t=0.0140174→0.0141576 step=0.00126157 V=-1.00602 u1=0.00961883 u2=0.98529 u3=0 Iion=2.97041
PIMPLE: iteration 1
DICPCG:  Solving for Vm, Initial residual = 3.458e-05, Final residual = 5.21361e-17, No Iterations 5
PIMPLE: iteration 2
DICPCG:  Solving for Vm, Initial residual = 1.07224e-16, Final residual = 1.07224e-16, No Iterations 0
ExecutionTime = 0.08 s  ClockTime = 0 s

Time = 0.0142977

DEBUG cell=0 t=0.0141576→0.0142977 step=0.000140174 V=-1.00609 u1=0.00961883 u2=0.98529 u3=0 Iion=2.97041
DEBUG cell=0 t=0.0141576→0.0142977 step=0.00126157 V=-1.00609 u1=0.00968968 u2=0.985154 u3=0 Iion=2.97048
PIMPLE: iteration 1
DICPCG:  Solving for Vm, Initial residual = 3.45752e-05, Final residual = 5.21289e-17, No Iterations 5
PIMPLE: iteration 2
DICPCG:  Solving for Vm, Initial residual = 1.0673e-16, Final residual = 1.0673e-16, No Iterations 0
ExecutionTime = 0.08 s  ClockTime = 0 s

Time = 0.0144379

DEBUG cell=0 t=0.0142977→0.0144379 step=0.000140174 V=-1.00616 u1=0.00968968 u2=0.985154 u3=0 Iion=2.97048
DEBUG cell=0 t=0.0142977→0.0144379 step=0.00126157 V=-1.00616 u1=0.00976054 u2=0.985018 u3=0 Iion=2.97055
PIMPLE: iteration 1
DICPCG:  Solving for Vm, Initial residual = 3.45704e-05, Final residual = 5.21217e-17, No Iterations 5
PIMPLE: iteration 2
DICPCG:  Solving for Vm, Initial residual = 1.08377e-16, Final residual = 1.08377e-16, No Iterations 0
ExecutionTime = 0.08 s  ClockTime = 0 s

Time = 0.0145781

DEBUG cell=0 t=0.0144379→0.0145781 step=0.000140174 V=-1.00623 u1=0.00976054 u2=0.985018 u3=0 Iion=2.97055
DEBUG cell=0 t=0.0144379→0.0145781 step=0.00126157 V=-1.00623 u1=0.00983141 u2=0.984882 u3=0 Iion=2.97062
PIMPLE: iteration 1
DICPCG:  Solving for Vm, Initial residual = 3.45657e-05, Final residual = 5.21145e-17, No Iterations 5
PIMPLE: iteration 2
DICPCG:  Solving for Vm, Initial residual = 1.08066e-16, Final residual = 1.08066e-16, No Iterations 0
ExecutionTime = 0.08 s  ClockTime = 0 s

Time = 0.0147183

DEBUG cell=0 t=0.0145781→0.0147183 step=0.000140174 V=-1.0063 u1=0.00983141 u2=0.984882 u3=0 Iion=2.97062
DEBUG cell=0 t=0.0145781→0.0147183 step=0.00126157 V=-1.0063 u1=0.00990228 u2=0.984746 u3=0 Iion=2.97069
PIMPLE: iteration 1
DICPCG:  Solving for Vm, Initial residual = 3.45609e-05, Final residual = 5.21073e-17, No Iterations 5
PIMPLE: iteration 2
DICPCG:  Solving for Vm, Initial residual = 1.07595e-16, Final residual = 1.07595e-16, No Iterations 0
ExecutionTime = 0.08 s  ClockTime = 0 s

Time = 0.0148584

DEBUG cell=0 t=0.0147183→0.0148584 step=0.000140174 V=-1.00637 u1=0.00990228 u2=0.984746 u3=0 Iion=2.97069
DEBUG cell=0 t=0.0147183→0.0148584 step=0.00126157 V=-1.00637 u1=0.00997316 u2=0.98461 u3=0 Iion=2.97076
PIMPLE: iteration 1
DICPCG:  Solving for Vm, Initial residual = 3.45561e-05, Final residual = 5.21002e-17, No Iterations 5
PIMPLE: iteration 2
DICPCG:  Solving for Vm, Initial residual = 1.06095e-16, Final residual = 1.06095e-16, No Iterations 0
ExecutionTime = 0.08 s  ClockTime = 0 s

Time = 0.0149986

DEBUG cell=0 t=0.0148584→0.0149986 step=0.000140174 V=-1.00644 u1=0.00997316 u2=0.98461 u3=0 Iion=2.97076
DEBUG cell=0 t=0.0148584→0.0149986 step=0.00126157 V=-1.00644 u1=0.010044 u2=0.984474 u3=0 Iion=2.97082
PIMPLE: iteration 1
DICPCG:  Solving for Vm, Initial residual = 3.45514e-05, Final residual = 5.2093e-17, No Iterations 5
PIMPLE: iteration 2
DICPCG:  Solving for Vm, Initial residual = 1.05511e-16, Final residual = 1.05511e-16, No Iterations 0
ExecutionTime = 0.09 s  ClockTime = 0 s

Time = 0.0151388

DEBUG cell=0 t=0.0149986→0.0151388 step=0.000140174 V=-1.00651 u1=0.010044 u2=0.984474 u3=0 Iion=2.97082
DEBUG cell=0 t=0.0149986→0.0151388 step=0.00126157 V=-1.00651 u1=0.0101149 u2=0.984338 u3=0 Iion=2.97089
PIMPLE: iteration 1
DICPCG:  Solving for Vm, Initial residual = 3.45466e-05, Final residual = 5.20858e-17, No Iterations 5
PIMPLE: iteration 2
DICPCG:  Solving for Vm, Initial residual = 1.07469e-16, Final residual = 1.07469e-16, No Iterations 0
ExecutionTime = 0.09 s  ClockTime = 0 s

Time = 0.015279

DEBUG cell=0 t=0.0151388→0.015279 step=0.000140174 V=-1.00657 u1=0.0101149 u2=0.984338 u3=0 Iion=2.97089
DEBUG cell=0 t=0.0151388→0.015279 step=0.00126157 V=-1.00657 u1=0.0101858 u2=0.984202 u3=0 Iion=2.97096
PIMPLE: iteration 1
DICPCG:  Solving for Vm, Initial residual = 3.45418e-05, Final residual = 5.20786e-17, No Iterations 5
PIMPLE: iteration 2
DICPCG:  Solving for Vm, Initial residual = 1.05883e-16, Final residual = 1.05883e-16, No Iterations 0
ExecutionTime = 0.09 s  ClockTime = 0 s

Time = 0.0154191

DEBUG cell=0 t=0.015279→0.0154191 step=0.000140174 V=-1.00664 u1=0.0101858 u2=0.984202 u3=0 Iion=2.97096
DEBUG cell=0 t=0.015279→0.0154191 step=0.00126157 V=-1.00664 u1=0.0102567 u2=0.984066 u3=0 Iion=2.97103
PIMPLE: iteration 1
DICPCG:  Solving for Vm, Initial residual = 3.45371e-05, Final residual = 5.20714e-17, No Iterations 5
PIMPLE: iteration 2
DICPCG:  Solving for Vm, Initial residual = 1.07509e-16, Final residual = 1.07509e-16, No Iterations 0
ExecutionTime = 0.09 s  ClockTime = 0 s

Time = 0.0155593

DEBUG cell=0 t=0.0154191→0.0155593 step=0.000140174 V=-1.00671 u1=0.0102567 u2=0.984066 u3=0 Iion=2.97103
DEBUG cell=0 t=0.0154191→0.0155593 step=0.00126157 V=-1.00671 u1=0.0103276 u2=0.98393 u3=0 Iion=2.9711
PIMPLE: iteration 1
DICPCG:  Solving for Vm, Initial residual = 3.45323e-05, Final residual = 5.20642e-17, No Iterations 5
PIMPLE: iteration 2
DICPCG:  Solving for Vm, Initial residual = 1.0762e-16, Final residual = 1.0762e-16, No Iterations 0
ExecutionTime = 0.09 s  ClockTime = 0 s

Time = 0.0156995

DEBUG cell=0 t=0.0155593→0.0156995 step=0.000140174 V=-1.00678 u1=0.0103276 u2=0.98393 u3=0 Iion=2.9711
DEBUG cell=0 t=0.0155593→0.0156995 step=0.00126157 V=-1.00678 u1=0.0103985 u2=0.983794 u3=0 Iion=2.97117
PIMPLE: iteration 1
DICPCG:  Solving for Vm, Initial residual = 3.45275e-05, Final residual = 5.20571e-17, No Iterations 5
PIMPLE: iteration 2
DICPCG:  Solving for Vm, Initial residual = 1.08236e-16, Final residual = 1.08236e-16, No Iterations 0
ExecutionTime = 0.09 s  ClockTime = 0 s

Time = 0.0158397

DEBUG cell=0 t=0.0156995→0.0158397 step=0.000140174 V=-1.00685 u1=0.0103985 u2=0.983794 u3=0 Iion=2.97117
DEBUG cell=0 t=0.0156995→0.0158397 step=0.00126157 V=-1.00685 u1=0.0104694 u2=0.983659 u3=0 Iion=2.97123
PIMPLE: iteration 1
DICPCG:  Solving for Vm, Initial residual = 3.45228e-05, Final residual = 5.20499e-17, No Iterations 5
PIMPLE: iteration 2
DICPCG:  Solving for Vm, Initial residual = 1.08288e-16, Final residual = 1.08288e-16, No Iterations 0
ExecutionTime = 0.09 s  ClockTime = 0 s

Time = 0.0159798

DEBUG cell=0 t=0.0158397→0.0159798 step=0.000140174 V=-1.00692 u1=0.0104694 u2=0.983659 u3=0 Iion=2.97123
DEBUG cell=0 t=0.0158397→0.0159798 step=0.00126157 V=-1.00692 u1=0.0105403 u2=0.983523 u3=0 Iion=2.9713
PIMPLE: iteration 1
DICPCG:  Solving for Vm, Initial residual = 3.4518e-05, Final residual = 5.20427e-17, No Iterations 5
PIMPLE: iteration 2
DICPCG:  Solving for Vm, Initial residual = 1.06954e-16, Final residual = 1.06954e-16, No Iterations 0
ExecutionTime = 0.09 s  ClockTime = 0 s

Time = 0.01612

DEBUG cell=0 t=0.0159798→0.01612 step=0.000140174 V=-1.00699 u1=0.0105403 u2=0.983523 u3=0 Iion=2.9713
DEBUG cell=0 t=0.0159798→0.01612 step=0.00126157 V=-1.00699 u1=0.0106113 u2=0.983387 u3=0 Iion=2.97137
PIMPLE: iteration 1
DICPCG:  Solving for Vm, Initial residual = 3.45133e-05, Final residual = 5.20355e-17, No Iterations 5
PIMPLE: iteration 2
DICPCG:  Solving for Vm, Initial residual = 1.07404e-16, Final residual = 1.07404e-16, No Iterations 0
ExecutionTime = 0.09 s  ClockTime = 0 s

Time = 0.0162602

DEBUG cell=0 t=0.01612→0.0162602 step=0.000140174 V=-1.00706 u1=0.0106113 u2=0.983387 u3=0 Iion=2.97137
DEBUG cell=0 t=0.01612→0.0162602 step=0.00126157 V=-1.00706 u1=0.0106822 u2=0.983252 u3=0 Iion=2.97144
PIMPLE: iteration 1
DICPCG:  Solving for Vm, Initial residual = 3.45085e-05, Final residual = 5.20284e-17, No Iterations 5
PIMPLE: iteration 2
DICPCG:  Solving for Vm, Initial residual = 1.06433e-16, Final residual = 1.06433e-16, No Iterations 0
ExecutionTime = 0.09 s  ClockTime = 0 s

Time = 0.0164004

DEBUG cell=0 t=0.0162602→0.0164004 step=0.000140174 V=-1.00713 u1=0.0106822 u2=0.983252 u3=0 Iion=2.97144
DEBUG cell=0 t=0.0162602→0.0164004 step=0.00126157 V=-1.00713 u1=0.0107531 u2=0.983116 u3=0 Iion=2.97151
PIMPLE: iteration 1
DICPCG:  Solving for Vm, Initial residual = 3.45038e-05, Final residual = 5.20212e-17, No Iterations 5
PIMPLE: iteration 2
DICPCG:  Solving for Vm, Initial residual = 1.06932e-16, Final residual = 1.06932e-16, No Iterations 0
ExecutionTime = 0.09 s  ClockTime = 0 s

Time = 0.0165405

DEBUG cell=0 t=0.0164004→0.0165405 step=0.000140174 V=-1.0072 u1=0.0107531 u2=0.983116 u3=0 Iion=2.97151
DEBUG cell=0 t=0.0164004→0.0165405 step=0.00126157 V=-1.0072 u1=0.010824 u2=0.982981 u3=0 Iion=2.97158
PIMPLE: iteration 1
DICPCG:  Solving for Vm, Initial residual = 3.4499e-05, Final residual = 5.2014e-17, No Iterations 5
PIMPLE: iteration 2
DICPCG:  Solving for Vm, Initial residual = 1.08268e-16, Final residual = 1.08268e-16, No Iterations 0
ExecutionTime = 0.09 s  ClockTime = 0 s

Time = 0.0166807

DEBUG cell=0 t=0.0165405→0.0166807 step=0.000140174 V=-1.00727 u1=0.010824 u2=0.982981 u3=0 Iion=2.97158
DEBUG cell=0 t=0.0165405→0.0166807 step=0.00126157 V=-1.00727 u1=0.010895 u2=0.982845 u3=0 Iion=2.97165
PIMPLE: iteration 1
DICPCG:  Solving for Vm, Initial residual = 3.44943e-05, Final residual = 5.20069e-17, No Iterations 5
PIMPLE: iteration 2
DICPCG:  Solving for Vm, Initial residual = 1.08142e-16, Final residual = 1.08142e-16, No Iterations 0
ExecutionTime = 0.09 s  ClockTime = 0 s

Time = 0.0168209

DEBUG cell=0 t=0.0166807→0.0168209 step=0.000140174 V=-1.00734 u1=0.010895 u2=0.982845 u3=0 Iion=2.97165
DEBUG cell=0 t=0.0166807→0.0168209 step=0.00126157 V=-1.00734 u1=0.0109659 u2=0.98271 u3=0 Iion=2.97171
PIMPLE: iteration 1
DICPCG:  Solving for Vm, Initial residual = 3.44895e-05, Final residual = 5.19997e-17, No Iterations 5
PIMPLE: iteration 2
DICPCG:  Solving for Vm, Initial residual = 1.05594e-16, Final residual = 1.05594e-16, No Iterations 0
ExecutionTime = 0.09 s  ClockTime = 0 s

Time = 0.0169611

DEBUG cell=0 t=0.0168209→0.0169611 step=0.000140174 V=-1.00741 u1=0.0109659 u2=0.98271 u3=0 Iion=2.97171
DEBUG cell=0 t=0.0168209→0.0169611 step=0.00126157 V=-1.00741 u1=0.0110369 u2=0.982574 u3=0 Iion=2.97178
PIMPLE: iteration 1
DICPCG:  Solving for Vm, Initial residual = 3.44848e-05, Final residual = 5.19925e-17, No Iterations 5
PIMPLE: iteration 2
DICPCG:  Solving for Vm, Initial residual = 1.08019e-16, Final residual = 1.08019e-16, No Iterations 0
ExecutionTime = 0.09 s  ClockTime = 0 s

Time = 0.0171012

DEBUG cell=0 t=0.0169611→0.0171012 step=0.000140174 V=-1.00748 u1=0.0110369 u2=0.982574 u3=0 Iion=2.97178
DEBUG cell=0 t=0.0169611→0.0171012 step=0.00126157 V=-1.00748 u1=0.0111078 u2=0.982439 u3=0 Iion=2.97185
PIMPLE: iteration 1
DICPCG:  Solving for Vm, Initial residual = 3.448e-05, Final residual = 5.19854e-17, No Iterations 5
PIMPLE: iteration 2
DICPCG:  Solving for Vm, Initial residual = 1.07045e-16, Final residual = 1.07045e-16, No Iterations 0
ExecutionTime = 0.1 s  ClockTime = 0 s

Time = 0.0172414

DEBUG cell=0 t=0.0171012→0.0172414 step=0.000140174 V=-1.00755 u1=0.0111078 u2=0.982439 u3=0 Iion=2.97185
DEBUG cell=0 t=0.0171012→0.0172414 step=0.00126157 V=-1.00755 u1=0.0111788 u2=0.982303 u3=0 Iion=2.97192
PIMPLE: iteration 1
DICPCG:  Solving for Vm, Initial residual = 3.44753e-05, Final residual = 5.19782e-17, No Iterations 5
PIMPLE: iteration 2
DICPCG:  Solving for Vm, Initial residual = 1.08056e-16, Final residual = 1.08056e-16, No Iterations 0
ExecutionTime = 0.1 s  ClockTime = 0 s

Time = 0.0173816

DEBUG cell=0 t=0.0172414→0.0173816 step=0.000140174 V=-1.00762 u1=0.0111788 u2=0.982303 u3=0 Iion=2.97192
DEBUG cell=0 t=0.0172414→0.0173816 step=0.00126157 V=-1.00762 u1=0.0112497 u2=0.982168 u3=0 Iion=2.97199
PIMPLE: iteration 1
DICPCG:  Solving for Vm, Initial residual = 3.44705e-05, Final residual = 5.19711e-17, No Iterations 5
PIMPLE: iteration 2
DICPCG:  Solving for Vm, Initial residual = 1.07069e-16, Final residual = 1.07069e-16, No Iterations 0
ExecutionTime = 0.1 s  ClockTime = 0 s

Time = 0.0175217

DEBUG cell=0 t=0.0173816→0.0175217 step=0.000140174 V=-1.00769 u1=0.0112497 u2=0.982168 u3=0 Iion=2.97199
DEBUG cell=0 t=0.0173816→0.0175217 step=0.00126157 V=-1.00769 u1=0.0113207 u2=0.982033 u3=0 Iion=2.97206
PIMPLE: iteration 1
DICPCG:  Solving for Vm, Initial residual = 3.44658e-05, Final residual = 5.19639e-17, No Iterations 5
PIMPLE: iteration 2
DICPCG:  Solving for Vm, Initial residual = 1.06462e-16, Final residual = 1.06462e-16, No Iterations 0
ExecutionTime = 0.1 s  ClockTime = 0 s

Time = 0.0176619

DEBUG cell=0 t=0.0175217→0.0176619 step=0.000140174 V=-1.00776 u1=0.0113207 u2=0.982033 u3=0 Iion=2.97206
DEBUG cell=0 t=0.0175217→0.0176619 step=0.00126157 V=-1.00776 u1=0.0113917 u2=0.981897 u3=0 Iion=2.97212
PIMPLE: iteration 1
DICPCG:  Solving for Vm, Initial residual = 3.4461e-05, Final residual = 5.19567e-17, No Iterations 5
PIMPLE: iteration 2
DICPCG:  Solving for Vm, Initial residual = 1.07151e-16, Final residual = 1.07151e-16, No Iterations 0
ExecutionTime = 0.1 s  ClockTime = 0 s

Time = 0.0178021

DEBUG cell=0 t=0.0176619→0.0178021 step=0.000140174 V=-1.00783 u1=0.0113917 u2=0.981897 u3=0 Iion=2.97212
DEBUG cell=0 t=0.0176619→0.0178021 step=0.00126157 V=-1.00783 u1=0.0114627 u2=0.981762 u3=0 Iion=2.97219
PIMPLE: iteration 1
DICPCG:  Solving for Vm, Initial residual = 3.44563e-05, Final residual = 5.19496e-17, No Iterations 5
PIMPLE: iteration 2
DICPCG:  Solving for Vm, Initial residual = 1.05939e-16, Final residual = 1.05939e-16, No Iterations 0
ExecutionTime = 0.1 s  ClockTime = 0 s

Time = 0.0179423

DEBUG cell=0 t=0.0178021→0.0179423 step=0.000140174 V=-1.0079 u1=0.0114627 u2=0.981762 u3=0 Iion=2.97219
DEBUG cell=0 t=0.0178021→0.0179423 step=0.00126157 V=-1.0079 u1=0.0115336 u2=0.981627 u3=0 Iion=2.97226
PIMPLE: iteration 1
DICPCG:  Solving for Vm, Initial residual = 3.44515e-05, Final residual = 5.19425e-17, No Iterations 5
PIMPLE: iteration 2
DICPCG:  Solving for Vm, Initial residual = 1.07457e-16, Final residual = 1.07457e-16, No Iterations 0
ExecutionTime = 0.1 s  ClockTime = 0 s

Time = 0.0180824

DEBUG cell=0 t=0.0179423→0.0180824 step=0.000140174 V=-1.00796 u1=0.0115336 u2=0.981627 u3=0 Iion=2.97226
DEBUG cell=0 t=0.0179423→0.0180824 step=0.00126157 V=-1.00796 u1=0.0116046 u2=0.981492 u3=0 Iion=2.97233
PIMPLE: iteration 1
DICPCG:  Solving for Vm, Initial residual = 3.44468e-05, Final residual = 5.19353e-17, No Iterations 5
PIMPLE: iteration 2
DICPCG:  Solving for Vm, Initial residual = 1.07686e-16, Final residual = 1.07686e-16, No Iterations 0
ExecutionTime = 0.1 s  ClockTime = 0 s

Time = 0.0182226

DEBUG cell=0 t=0.0180824→0.0182226 step=0.000140174 V=-1.00803 u1=0.0116046 u2=0.981492 u3=0 Iion=2.97233
DEBUG cell=0 t=0.0180824→0.0182226 step=0.00126157 V=-1.00803 u1=0.0116756 u2=0.981357 u3=0 Iion=2.9724
PIMPLE: iteration 1
DICPCG:  Solving for Vm, Initial residual = 3.44421e-05, Final residual = 5.19282e-17, No Iterations 5
PIMPLE: iteration 2
DICPCG:  Solving for Vm, Initial residual = 1.07605e-16, Final residual = 1.07605e-16, No Iterations 0
ExecutionTime = 0.1 s  ClockTime = 0 s

Time = 0.0183628

DEBUG cell=0 t=0.0182226→0.0183628 step=0.000140174 V=-1.0081 u1=0.0116756 u2=0.981357 u3=0 Iion=2.9724
DEBUG cell=0 t=0.0182226→0.0183628 step=0.00126157 V=-1.0081 u1=0.0117466 u2=0.981222 u3=0 Iion=2.97247
PIMPLE: iteration 1
DICPCG:  Solving for Vm, Initial residual = 3.44373e-05, Final residual = 5.1921e-17, No Iterations 5
PIMPLE: iteration 2
DICPCG:  Solving for Vm, Initial residual = 1.07924e-16, Final residual = 1.07924e-16, No Iterations 0
ExecutionTime = 0.1 s  ClockTime = 0 s

Time = 0.018503

DEBUG cell=0 t=0.0183628→0.018503 step=0.000140174 V=-1.00817 u1=0.0117466 u2=0.981222 u3=0 Iion=2.97247
DEBUG cell=0 t=0.0183628→0.018503 step=0.00126157 V=-1.00817 u1=0.0118176 u2=0.981087 u3=0 Iion=2.97254
PIMPLE: iteration 1
DICPCG:  Solving for Vm, Initial residual = 3.44326e-05, Final residual = 5.19139e-17, No Iterations 5
PIMPLE: iteration 2
DICPCG:  Solving for Vm, Initial residual = 1.06164e-16, Final residual = 1.06164e-16, No Iterations 0
ExecutionTime = 0.1 s  ClockTime = 0 s

Time = 0.0186431

DEBUG cell=0 t=0.018503→0.0186431 step=0.000140174 V=-1.00824 u1=0.0118176 u2=0.981087 u3=0 Iion=2.97254
DEBUG cell=0 t=0.018503→0.0186431 step=0.00126157 V=-1.00824 u1=0.0118886 u2=0.980952 u3=0 Iion=2.9726
PIMPLE: iteration 1
DICPCG:  Solving for Vm, Initial residual = 3.44279e-05, Final residual = 5.19067e-17, No Iterations 5
PIMPLE: iteration 2
DICPCG:  Solving for Vm, Initial residual = 1.07819e-16, Final residual = 1.07819e-16, No Iterations 0
ExecutionTime = 0.1 s  ClockTime = 0 s

Time = 0.0187833

DEBUG cell=0 t=0.0186431→0.0187833 step=0.000140174 V=-1.00831 u1=0.0118886 u2=0.980952 u3=0 Iion=2.9726
DEBUG cell=0 t=0.0186431→0.0187833 step=0.00126157 V=-1.00831 u1=0.0119596 u2=0.980817 u3=0 Iion=2.97267
PIMPLE: iteration 1
DICPCG:  Solving for Vm, Initial residual = 3.44231e-05, Final residual = 5.18996e-17, No Iterations 5
PIMPLE: iteration 2
DICPCG:  Solving for Vm, Initial residual = 1.06004e-16, Final residual = 1.06004e-16, No Iterations 0
ExecutionTime = 0.1 s  ClockTime = 0 s

Time = 0.0189235

DEBUG cell=0 t=0.0187833→0.0189235 step=0.000140174 V=-1.00838 u1=0.0119596 u2=0.980817 u3=0 Iion=2.97267
DEBUG cell=0 t=0.0187833→0.0189235 step=0.00126157 V=-1.00838 u1=0.0120306 u2=0.980682 u3=0 Iion=2.97274
PIMPLE: iteration 1
DICPCG:  Solving for Vm, Initial residual = 3.44184e-05, Final residual = 5.18925e-17, No Iterations 5
PIMPLE: iteration 2
DICPCG:  Solving for Vm, Initial residual = 1.08972e-16, Final residual = 1.08972e-16, No Iterations 0
ExecutionTime = 0.1 s  ClockTime = 0 s

Time = 0.0190637

DEBUG cell=0 t=0.0189235→0.0190637 step=0.000140174 V=-1.00845 u1=0.0120306 u2=0.980682 u3=0 Iion=2.97274
DEBUG cell=0 t=0.0189235→0.0190637 step=0.00126157 V=-1.00845 u1=0.0121017 u2=0.980547 u3=0 Iion=2.97281
PIMPLE: iteration 1
DICPCG:  Solving for Vm, Initial residual = 3.44137e-05, Final residual = 5.18853e-17, No Iterations 5
PIMPLE: iteration 2
DICPCG:  Solving for Vm, Initial residual = 1.06446e-16, Final residual = 1.06446e-16, No Iterations 0
ExecutionTime = 0.11 s  ClockTime = 0 s

Time = 0.0192038

DEBUG cell=0 t=0.0190637→0.0192038 step=0.000140174 V=-1.00852 u1=0.0121017 u2=0.980547 u3=0 Iion=2.97281
DEBUG cell=0 t=0.0190637→0.0192038 step=0.00126157 V=-1.00852 u1=0.0121727 u2=0.980412 u3=0 Iion=2.97288
PIMPLE: iteration 1
DICPCG:  Solving for Vm, Initial residual = 3.44089e-05, Final residual = 5.18782e-17, No Iterations 5
PIMPLE: iteration 2
DICPCG:  Solving for Vm, Initial residual = 1.072e-16, Final residual = 1.072e-16, No Iterations 0
ExecutionTime = 0.11 s  ClockTime = 0 s

Time = 0.019344

DEBUG cell=0 t=0.0192038→0.019344 step=0.000140174 V=-1.00859 u1=0.0121727 u2=0.980412 u3=0 Iion=2.97288
DEBUG cell=0 t=0.0192038→0.019344 step=0.00126157 V=-1.00859 u1=0.0122437 u2=0.980277 u3=0 Iion=2.97295
PIMPLE: iteration 1
DICPCG:  Solving for Vm, Initial residual = 3.44042e-05, Final residual = 5.18711e-17, No Iterations 5
PIMPLE: iteration 2
DICPCG:  Solving for Vm, Initial residual = 1.05962e-16, Final residual = 1.05962e-16, No Iterations 0
ExecutionTime = 0.11 s  ClockTime = 0 s

Time = 0.0194842

DEBUG cell=0 t=0.019344→0.0194842 step=0.000140174 V=-1.00866 u1=0.0122437 u2=0.980277 u3=0 Iion=2.97295
DEBUG cell=0 t=0.019344→0.0194842 step=0.00126157 V=-1.00866 u1=0.0123148 u2=0.980142 u3=0 Iion=2.97302
PIMPLE: iteration 1
DICPCG:  Solving for Vm, Initial residual = 3.43995e-05, Final residual = 5.1864e-17, No Iterations 5
PIMPLE: iteration 2
DICPCG:  Solving for Vm, Initial residual = 1.07313e-16, Final residual = 1.07313e-16, No Iterations 0
ExecutionTime = 0.11 s  ClockTime = 0 s

Time = 0.0196244

DEBUG cell=0 t=0.0194842→0.0196244 step=0.000140174 V=-1.00873 u1=0.0123148 u2=0.980142 u3=0 Iion=2.97302
DEBUG cell=0 t=0.0194842→0.0196244 step=0.00126157 V=-1.00873 u1=0.0123858 u2=0.980008 u3=0 Iion=2.97308
PIMPLE: iteration 1
DICPCG:  Solving for Vm, Initial residual = 3.43948e-05, Final residual = 5.18568e-17, No Iterations 5
PIMPLE: iteration 2
DICPCG:  Solving for Vm, Initial residual = 1.09607e-16, Final residual = 1.09607e-16, No Iterations 0
ExecutionTime = 0.11 s  ClockTime = 0 s

Time = 0.0197645

DEBUG cell=0 t=0.0196244→0.0197645 step=0.000140174 V=-1.0088 u1=0.0123858 u2=0.980008 u3=0 Iion=2.97308
DEBUG cell=0 t=0.0196244→0.0197645 step=0.00126157 V=-1.0088 u1=0.0124568 u2=0.979873 u3=0 Iion=2.97315
PIMPLE: iteration 1
DICPCG:  Solving for Vm, Initial residual = 3.439e-05, Final residual = 5.18497e-17, No Iterations 5
PIMPLE: iteration 2
DICPCG:  Solving for Vm, Initial residual = 1.06993e-16, Final residual = 1.06993e-16, No Iterations 0
ExecutionTime = 0.11 s  ClockTime = 0 s

Time = 0.0199047

DEBUG cell=0 t=0.0197645→0.0199047 step=0.000140174 V=-1.00887 u1=0.0124568 u2=0.979873 u3=0 Iion=2.97315
DEBUG cell=0 t=0.0197645→0.0199047 step=0.00126157 V=-1.00887 u1=0.0125279 u2=0.979738 u3=0 Iion=2.97322
PIMPLE: iteration 1
DICPCG:  Solving for Vm, Initial residual = 3.43853e-05, Final residual = 5.18426e-17, No Iterations 5
PIMPLE: iteration 2
DICPCG:  Solving for Vm, Initial residual = 1.06335e-16, Final residual = 1.06335e-16, No Iterations 0
ExecutionTime = 0.11 s  ClockTime = 0 s

Time = 0.0200449

DEBUG cell=0 t=0.0199047→0.0200449 step=0.000140174 V=-1.00894 u1=0.0125279 u2=0.979738 u3=0 Iion=2.97322
DEBUG cell=0 t=0.0199047→0.0200449 step=0.00126157 V=-1.00894 u1=0.0125989 u2=0.979604 u3=0 Iion=2.97329
PIMPLE: iteration 1
DICPCG:  Solving for Vm, Initial residual = 3.43806e-05, Final residual = 5.18355e-17, No Iterations 5
PIMPLE: iteration 2
DICPCG:  Solving for Vm, Initial residual = 1.07886e-16, Final residual = 1.07886e-16, No Iterations 0
ExecutionTime = 0.11 s  ClockTime = 0 s

Time = 0.0201851

DEBUG cell=0 t=0.0200449→0.0201851 step=0.000140174 V=-1.00901 u1=0.0125989 u2=0.979604 u3=0 Iion=2.97329
DEBUG cell=0 t=0.0200449→0.0201851 step=0.00126157 V=-1.00901 u1=0.01267 u2=0.979469 u3=0 Iion=2.97336
PIMPLE: iteration 1
DICPCG:  Solving for Vm, Initial residual = 3.43759e-05, Final residual = 5.18284e-17, No Iterations 5
PIMPLE: iteration 2
DICPCG:  Solving for Vm, Initial residual = 1.07929e-16, Final residual = 1.07929e-16, No Iterations 0
ExecutionTime = 0.11 s  ClockTime = 0 s

Time = 0.0203252

DEBUG cell=0 t=0.0201851→0.0203252 step=0.000140174 V=-1.00907 u1=0.01267 u2=0.979469 u3=0 Iion=2.97336
DEBUG cell=0 t=0.0201851→0.0203252 step=0.00126157 V=-1.00907 u1=0.0127411 u2=0.979334 u3=0 Iion=2.97343
PIMPLE: iteration 1
DICPCG:  Solving for Vm, Initial residual = 3.43712e-05, Final residual = 5.18212e-17, No Iterations 5
PIMPLE: iteration 2
DICPCG:  Solving for Vm, Initial residual = 1.0624e-16, Final residual = 1.0624e-16, No Iterations 0
ExecutionTime = 0.11 s  ClockTime = 0 s

Time = 0.0204654

DEBUG cell=0 t=0.0203252→0.0204654 step=0.000140174 V=-1.00914 u1=0.0127411 u2=0.979334 u3=0 Iion=2.97343
DEBUG cell=0 t=0.0203252→0.0204654 step=0.00126157 V=-1.00914 u1=0.0128121 u2=0.9792 u3=0 Iion=2.9735
PIMPLE: iteration 1
DICPCG:  Solving for Vm, Initial residual = 3.43664e-05, Final residual = 5.18141e-17, No Iterations 5
PIMPLE: iteration 2
DICPCG:  Solving for Vm, Initial residual = 1.06108e-16, Final residual = 1.06108e-16, No Iterations 0
ExecutionTime = 0.11 s  ClockTime = 0 s

Time = 0.0206056

DEBUG cell=0 t=0.0204654→0.0206056 step=0.000140174 V=-1.00921 u1=0.0128121 u2=0.9792 u3=0 Iion=2.9735
DEBUG cell=0 t=0.0204654→0.0206056 step=0.00126157 V=-1.00921 u1=0.0128832 u2=0.979065 u3=0 Iion=2.97356
PIMPLE: iteration 1
DICPCG:  Solving for Vm, Initial residual = 3.43617e-05, Final residual = 5.1807e-17, No Iterations 5
PIMPLE: iteration 2
DICPCG:  Solving for Vm, Initial residual = 1.0799e-16, Final residual = 1.0799e-16, No Iterations 0
ExecutionTime = 0.11 s  ClockTime = 0 s

Time = 0.0207458

DEBUG cell=0 t=0.0206056→0.0207458 step=0.000140174 V=-1.00928 u1=0.0128832 u2=0.979065 u3=0 Iion=2.97356
DEBUG cell=0 t=0.0206056→0.0207458 step=0.00126157 V=-1.00928 u1=0.0129543 u2=0.978931 u3=0 Iion=2.97363
PIMPLE: iteration 1
DICPCG:  Solving for Vm, Initial residual = 3.4357e-05, Final residual = 5.17999e-17, No Iterations 5
PIMPLE: iteration 2
DICPCG:  Solving for Vm, Initial residual = 1.07767e-16, Final residual = 1.07767e-16, No Iterations 0
ExecutionTime = 0.11 s  ClockTime = 0 s

Time = 0.0208859

DEBUG cell=0 t=0.0207458→0.0208859 step=0.000140174 V=-1.00935 u1=0.0129543 u2=0.978931 u3=0 Iion=2.97363
DEBUG cell=0 t=0.0207458→0.0208859 step=0.00126157 V=-1.00935 u1=0.0130254 u2=0.978797 u3=0 Iion=2.9737
PIMPLE: iteration 1
DICPCG:  Solving for Vm, Initial residual = 3.43523e-05, Final residual = 5.17928e-17, No Iterations 5
PIMPLE: iteration 2
DICPCG:  Solving for Vm, Initial residual = 1.06134e-16, Final residual = 1.06134e-16, No Iterations 0
ExecutionTime = 0.11 s  ClockTime = 0 s

Time = 0.0210261

[...]
ExecutionTime = 0.98 s  ClockTime = 1 s

Time = 0.194842

DEBUG cell=0 t=0.194702→0.194842 step=0.000140174 V=-1.09204 u1=0.104551 u2=0.836392 u3=0 Iion=3.06158
DEBUG cell=0 t=0.194702→0.194842 step=0.00126157 V=-1.09204 u1=0.104627 u2=0.836294 u3=0 Iion=3.06165
PIMPLE: iteration 1
DICPCG:  Solving for Vm, Initial residual = 2.93554e-05, Final residual = 4.42586e-17, No Iterations 5
PIMPLE: iteration 2
DICPCG:  Solving for Vm, Initial residual = 9.97964e-17, Final residual = 9.97964e-17, No Iterations 0
ExecutionTime = 0.98 s  ClockTime = 1 s

Time = 0.194982

DEBUG cell=0 t=0.194842→0.194982 step=0.000140174 V=-1.09211 u1=0.104627 u2=0.836294 u3=0 Iion=3.06165
DEBUG cell=0 t=0.194842→0.194982 step=0.00126157 V=-1.09211 u1=0.104703 u2=0.836196 u3=0 Iion=3.06172
PIMPLE: iteration 1
DICPCG:  Solving for Vm, Initial residual = 2.93519e-05, Final residual = 4.42534e-17, No Iterations 5
PIMPLE: iteration 2
DICPCG:  Solving for Vm, Initial residual = 1.01828e-16, Final residual = 1.01828e-16, No Iterations 0
ExecutionTime = 0.98 s  ClockTime = 1 s

Time = 0.195122

DEBUG cell=0 t=0.194982→0.195122 step=0.000140174 V=-1.09217 u1=0.104703 u2=0.836196 u3=0 Iion=3.06172
DEBUG cell=0 t=0.194982→0.195122 step=0.00126157 V=-1.09217 u1=0.10478 u2=0.836098 u3=0 Iion=3.06179
PIMPLE: iteration 1
DICPCG:  Solving for Vm, Initial residual = 2.93485e-05, Final residual = 4.42482e-17, No Iterations 5
PIMPLE: iteration 2
DICPCG:  Solving for Vm, Initial residual = 1.0308e-16, Final residual = 1.0308e-16, No Iterations 0
ExecutionTime = 0.98 s  ClockTime = 1 s

Time = 0.195262

DEBUG cell=0 t=0.195122→0.195262 step=0.000140174 V=-1.09223 u1=0.10478 u2=0.836098 u3=0 Iion=3.06179
DEBUG cell=0 t=0.195122→0.195262 step=0.00126157 V=-1.09223 u1=0.104856 u2=0.836 u3=0 Iion=3.06187
PIMPLE: iteration 1
DICPCG:  Solving for Vm, Initial residual = 2.93451e-05, Final residual = 4.4243e-17, No Iterations 5
PIMPLE: iteration 2
DICPCG:  Solving for Vm, Initial residual = 1.01792e-16, Final residual = 1.01792e-16, No Iterations 0
ExecutionTime = 0.98 s  ClockTime = 1 s

Time = 0.195403

DEBUG cell=0 t=0.195262→0.195403 step=0.000140174 V=-1.0923 u1=0.104856 u2=0.836 u3=0 Iion=3.06187
DEBUG cell=0 t=0.195262→0.195403 step=0.00126157 V=-1.0923 u1=0.104932 u2=0.835902 u3=0 Iion=3.06194
PIMPLE: iteration 1
DICPCG:  Solving for Vm, Initial residual = 2.93416e-05, Final residual = 4.42378e-17, No Iterations 5
PIMPLE: iteration 2
DICPCG:  Solving for Vm, Initial residual = 1.01691e-16, Final residual = 1.01691e-16, No Iterations 0
ExecutionTime = 0.98 s  ClockTime = 1 s

Time = 0.195543

DEBUG cell=0 t=0.195403→0.195543 step=0.000140174 V=-1.09236 u1=0.104932 u2=0.835902 u3=0 Iion=3.06194
DEBUG cell=0 t=0.195403→0.195543 step=0.00126157 V=-1.09236 u1=0.105009 u2=0.835804 u3=0 Iion=3.06201
PIMPLE: iteration 1
DICPCG:  Solving for Vm, Initial residual = 2.93382e-05, Final residual = 4.42327e-17, No Iterations 5
PIMPLE: iteration 2
DICPCG:  Solving for Vm, Initial residual = 1.03368e-16, Final residual = 1.03368e-16, No Iterations 0
ExecutionTime = 0.98 s  ClockTime = 1 s

Time = 0.195683

DEBUG cell=0 t=0.195543→0.195683 step=0.000140174 V=-1.09243 u1=0.105009 u2=0.835804 u3=0 Iion=3.06201
DEBUG cell=0 t=0.195543→0.195683 step=0.00126157 V=-1.09243 u1=0.105085 u2=0.835706 u3=0 Iion=3.06208
PIMPLE: iteration 1
DICPCG:  Solving for Vm, Initial residual = 2.93348e-05, Final residual = 4.42275e-17, No Iterations 5
PIMPLE: iteration 2
DICPCG:  Solving for Vm, Initial residual = 1.01779e-16, Final residual = 1.01779e-16, No Iterations 0
ExecutionTime = 0.98 s  ClockTime = 1 s

Time = 0.195823

DEBUG cell=0 t=0.195683→0.195823 step=0.000140174 V=-1.09249 u1=0.105085 u2=0.835706 u3=0 Iion=3.06208
DEBUG cell=0 t=0.195683→0.195823 step=0.00126157 V=-1.09249 u1=0.105162 u2=0.835608 u3=0 Iion=3.06216
PIMPLE: iteration 1
DICPCG:  Solving for Vm, Initial residual = 2.93313e-05, Final residual = 4.42223e-17, No Iterations 5
PIMPLE: iteration 2
DICPCG:  Solving for Vm, Initial residual = 1.02537e-16, Final residual = 1.02537e-16, No Iterations 0
ExecutionTime = 0.98 s  ClockTime = 1 s

Time = 0.195963

DEBUG cell=0 t=0.195823→0.195963 step=0.000140174 V=-1.09255 u1=0.105162 u2=0.835608 u3=0 Iion=3.06216
DEBUG cell=0 t=0.195823→0.195963 step=0.00126157 V=-1.09255 u1=0.105238 u2=0.83551 u3=0 Iion=3.06223
PIMPLE: iteration 1
DICPCG:  Solving for Vm, Initial residual = 2.93279e-05, Final residual = 4.42171e-17, No Iterations 5
PIMPLE: iteration 2
DICPCG:  Solving for Vm, Initial residual = 1.01243e-16, Final residual = 1.01243e-16, No Iterations 0
ExecutionTime = 0.98 s  ClockTime = 1 s

Time = 0.196103

DEBUG cell=0 t=0.195963→0.196103 step=0.000140174 V=-1.09262 u1=0.105238 u2=0.83551 u3=0 Iion=3.06223
DEBUG cell=0 t=0.195963→0.196103 step=0.00126157 V=-1.09262 u1=0.105314 u2=0.835412 u3=0 Iion=3.0623
PIMPLE: iteration 1
DICPCG:  Solving for Vm, Initial residual = 2.93244e-05, Final residual = 4.4212e-17, No Iterations 5
PIMPLE: iteration 2
DICPCG:  Solving for Vm, Initial residual = 1.01993e-16, Final residual = 1.01993e-16, No Iterations 0
ExecutionTime = 0.99 s  ClockTime = 1 s

Time = 0.196244

DEBUG cell=0 t=0.196103→0.196244 step=0.000140174 V=-1.09268 u1=0.105314 u2=0.835412 u3=0 Iion=3.0623
DEBUG cell=0 t=0.196103→0.196244 step=0.00126157 V=-1.09268 u1=0.105391 u2=0.835314 u3=0 Iion=3.06237
PIMPLE: iteration 1
DICPCG:  Solving for Vm, Initial residual = 2.9321e-05, Final residual = 4.42068e-17, No Iterations 5
PIMPLE: iteration 2
DICPCG:  Solving for Vm, Initial residual = 1.02713e-16, Final residual = 1.02713e-16, No Iterations 0
ExecutionTime = 0.99 s  ClockTime = 1 s

Time = 0.196384

DEBUG cell=0 t=0.196244→0.196384 step=0.000140174 V=-1.09275 u1=0.105391 u2=0.835314 u3=0 Iion=3.06237
DEBUG cell=0 t=0.196244→0.196384 step=0.00126157 V=-1.09275 u1=0.105467 u2=0.835216 u3=0 Iion=3.06245
PIMPLE: iteration 1
DICPCG:  Solving for Vm, Initial residual = 2.93176e-05, Final residual = 4.42016e-17, No Iterations 5
PIMPLE: iteration 2
DICPCG:  Solving for Vm, Initial residual = 1.0336e-16, Final residual = 1.0336e-16, No Iterations 0
ExecutionTime = 0.99 s  ClockTime = 1 s

Time = 0.196524

DEBUG cell=0 t=0.196384→0.196524 step=0.000140174 V=-1.09281 u1=0.105467 u2=0.835216 u3=0 Iion=3.06245
DEBUG cell=0 t=0.196384→0.196524 step=0.00126157 V=-1.09281 u1=0.105543 u2=0.835118 u3=0 Iion=3.06252
PIMPLE: iteration 1
DICPCG:  Solving for Vm, Initial residual = 2.93142e-05, Final residual = 4.41964e-17, No Iterations 5
PIMPLE: iteration 2
DICPCG:  Solving for Vm, Initial residual = 1.02925e-16, Final residual = 1.02925e-16, No Iterations 0
ExecutionTime = 0.99 s  ClockTime = 1 s

Time = 0.196664

DEBUG cell=0 t=0.196524→0.196664 step=0.000140174 V=-1.09287 u1=0.105543 u2=0.835118 u3=0 Iion=3.06252
DEBUG cell=0 t=0.196524→0.196664 step=0.00126157 V=-1.09287 u1=0.10562 u2=0.835021 u3=0 Iion=3.06259
PIMPLE: iteration 1
DICPCG:  Solving for Vm, Initial residual = 2.93107e-05, Final residual = 4.41913e-17, No Iterations 5
PIMPLE: iteration 2
DICPCG:  Solving for Vm, Initial residual = 1.01102e-16, Final residual = 1.01102e-16, No Iterations 0
ExecutionTime = 0.99 s  ClockTime = 1 s

Time = 0.196804

DEBUG cell=0 t=0.196664→0.196804 step=0.000140174 V=-1.09294 u1=0.10562 u2=0.835021 u3=0 Iion=3.06259
DEBUG cell=0 t=0.196664→0.196804 step=0.00126157 V=-1.09294 u1=0.105696 u2=0.834923 u3=0 Iion=3.06266
PIMPLE: iteration 1
DICPCG:  Solving for Vm, Initial residual = 2.93073e-05, Final residual = 4.41861e-17, No Iterations 5
PIMPLE: iteration 2
DICPCG:  Solving for Vm, Initial residual = 1.02883e-16, Final residual = 1.02883e-16, No Iterations 0
ExecutionTime = 0.99 s  ClockTime = 1 s

Time = 0.196944

DEBUG cell=0 t=0.196804→0.196944 step=0.000140174 V=-1.093 u1=0.105696 u2=0.834923 u3=0 Iion=3.06266
DEBUG cell=0 t=0.196804→0.196944 step=0.00126157 V=-1.093 u1=0.105773 u2=0.834825 u3=0 Iion=3.06274
PIMPLE: iteration 1
DICPCG:  Solving for Vm, Initial residual = 2.93039e-05, Final residual = 4.41809e-17, No Iterations 5
PIMPLE: iteration 2
DICPCG:  Solving for Vm, Initial residual = 1.02125e-16, Final residual = 1.02125e-16, No Iterations 0
ExecutionTime = 0.99 s  ClockTime = 1 s

Time = 0.197085

DEBUG cell=0 t=0.196944→0.197085 step=0.000140174 V=-1.09307 u1=0.105773 u2=0.834825 u3=0 Iion=3.06274
DEBUG cell=0 t=0.196944→0.197085 step=0.00126157 V=-1.09307 u1=0.105849 u2=0.834727 u3=0 Iion=3.06281
PIMPLE: iteration 1
DICPCG:  Solving for Vm, Initial residual = 2.93004e-05, Final residual = 4.41757e-17, No Iterations 5
PIMPLE: iteration 2
DICPCG:  Solving for Vm, Initial residual = 1.03933e-16, Final residual = 1.03933e-16, No Iterations 0
ExecutionTime = 0.99 s  ClockTime = 1 s

Time = 0.197225

DEBUG cell=0 t=0.197085→0.197225 step=0.000140174 V=-1.09313 u1=0.105849 u2=0.834727 u3=0 Iion=3.06281
DEBUG cell=0 t=0.197085→0.197225 step=0.00126157 V=-1.09313 u1=0.105925 u2=0.83463 u3=0 Iion=3.06288
PIMPLE: iteration 1
DICPCG:  Solving for Vm, Initial residual = 2.9297e-05, Final residual = 4.41706e-17, No Iterations 5
PIMPLE: iteration 2
DICPCG:  Solving for Vm, Initial residual = 1.01845e-16, Final residual = 1.01845e-16, No Iterations 0
ExecutionTime = 0.99 s  ClockTime = 1 s

Time = 0.197365

DEBUG cell=0 t=0.197225→0.197365 step=0.000140174 V=-1.09319 u1=0.105925 u2=0.83463 u3=0 Iion=3.06288
DEBUG cell=0 t=0.197225→0.197365 step=0.00126157 V=-1.09319 u1=0.106002 u2=0.834532 u3=0 Iion=3.06295
PIMPLE: iteration 1
DICPCG:  Solving for Vm, Initial residual = 2.92936e-05, Final residual = 4.41654e-17, No Iterations 5
PIMPLE: iteration 2
DICPCG:  Solving for Vm, Initial residual = 1.02647e-16, Final residual = 1.02647e-16, No Iterations 0
ExecutionTime = 0.99 s  ClockTime = 1 s

Time = 0.197505

DEBUG cell=0 t=0.197365→0.197505 step=0.000140174 V=-1.09326 u1=0.106002 u2=0.834532 u3=0 Iion=3.06295
DEBUG cell=0 t=0.197365→0.197505 step=0.00126157 V=-1.09326 u1=0.106078 u2=0.834434 u3=0 Iion=3.06303
PIMPLE: iteration 1
DICPCG:  Solving for Vm, Initial residual = 2.92902e-05, Final residual = 4.41603e-17, No Iterations 5
PIMPLE: iteration 2
DICPCG:  Solving for Vm, Initial residual = 1.02324e-16, Final residual = 1.02324e-16, No Iterations 0
ExecutionTime = 0.99 s  ClockTime = 1 s

Time = 0.197645

DEBUG cell=0 t=0.197505→0.197645 step=0.000140174 V=-1.09332 u1=0.106078 u2=0.834434 u3=0 Iion=3.06303
DEBUG cell=0 t=0.197505→0.197645 step=0.00126157 V=-1.09332 u1=0.106155 u2=0.834336 u3=0 Iion=3.0631
PIMPLE: iteration 1
DICPCG:  Solving for Vm, Initial residual = 2.92867e-05, Final residual = 4.41551e-17, No Iterations 5
PIMPLE: iteration 2
DICPCG:  Solving for Vm, Initial residual = 1.02462e-16, Final residual = 1.02462e-16, No Iterations 0
ExecutionTime = 0.99 s  ClockTime = 1 s

Time = 0.197786

DEBUG cell=0 t=0.197645→0.197786 step=0.000140174 V=-1.09339 u1=0.106155 u2=0.834336 u3=0 Iion=3.0631
DEBUG cell=0 t=0.197645→0.197786 step=0.00126157 V=-1.09339 u1=0.106231 u2=0.834239 u3=0 Iion=3.06317
PIMPLE: iteration 1
DICPCG:  Solving for Vm, Initial residual = 2.92833e-05, Final residual = 4.41499e-17, No Iterations 5
PIMPLE: iteration 2
DICPCG:  Solving for Vm, Initial residual = 1.03245e-16, Final residual = 1.03245e-16, No Iterations 0
ExecutionTime = 0.99 s  ClockTime = 1 s

Time = 0.197926

DEBUG cell=0 t=0.197786→0.197926 step=0.000140174 V=-1.09345 u1=0.106231 u2=0.834239 u3=0 Iion=3.06317
DEBUG cell=0 t=0.197786→0.197926 step=0.00126157 V=-1.09345 u1=0.106307 u2=0.834141 u3=0 Iion=3.06325
PIMPLE: iteration 1
DICPCG:  Solving for Vm, Initial residual = 2.92799e-05, Final residual = 4.41448e-17, No Iterations 5
PIMPLE: iteration 2
DICPCG:  Solving for Vm, Initial residual = 1.03393e-16, Final residual = 1.03393e-16, No Iterations 0
ExecutionTime = 0.99 s  ClockTime = 1 s

Time = 0.198066

DEBUG cell=0 t=0.197926→0.198066 step=0.000140174 V=-1.09351 u1=0.106307 u2=0.834141 u3=0 Iion=3.06325
DEBUG cell=0 t=0.197926→0.198066 step=0.00126157 V=-1.09351 u1=0.106384 u2=0.834044 u3=0 Iion=3.06332
PIMPLE: iteration 1
DICPCG:  Solving for Vm, Initial residual = 2.92765e-05, Final residual = 4.41396e-17, No Iterations 5
PIMPLE: iteration 2
DICPCG:  Solving for Vm, Initial residual = 1.02295e-16, Final residual = 1.02295e-16, No Iterations 0
ExecutionTime = 0.99 s  ClockTime = 1 s

Time = 0.198206

DEBUG cell=0 t=0.198066→0.198206 step=0.000140174 V=-1.09358 u1=0.106384 u2=0.834044 u3=0 Iion=3.06332
DEBUG cell=0 t=0.198066→0.198206 step=0.00126157 V=-1.09358 u1=0.10646 u2=0.833946 u3=0 Iion=3.06339
PIMPLE: iteration 1
DICPCG:  Solving for Vm, Initial residual = 2.9273e-05, Final residual = 4.41344e-17, No Iterations 5
PIMPLE: iteration 2
DICPCG:  Solving for Vm, Initial residual = 1.02856e-16, Final residual = 1.02856e-16, No Iterations 0
ExecutionTime = 0.99 s  ClockTime = 1 s

Time = 0.198346

DEBUG cell=0 t=0.198206→0.198346 step=0.000140174 V=-1.09364 u1=0.10646 u2=0.833946 u3=0 Iion=3.06339
DEBUG cell=0 t=0.198206→0.198346 step=0.00126157 V=-1.09364 u1=0.106537 u2=0.833848 u3=0 Iion=3.06346
PIMPLE: iteration 1
DICPCG:  Solving for Vm, Initial residual = 2.92696e-05, Final residual = 4.41293e-17, No Iterations 5
PIMPLE: iteration 2
DICPCG:  Solving for Vm, Initial residual = 1.02943e-16, Final residual = 1.02943e-16, No Iterations 0
ExecutionTime = 1 s  ClockTime = 1 s

Time = 0.198486

DEBUG cell=0 t=0.198346→0.198486 step=0.000140174 V=-1.09371 u1=0.106537 u2=0.833848 u3=0 Iion=3.06346
DEBUG cell=0 t=0.198346→0.198486 step=0.00126157 V=-1.09371 u1=0.106613 u2=0.833751 u3=0 Iion=3.06354
PIMPLE: iteration 1
DICPCG:  Solving for Vm, Initial residual = 2.92662e-05, Final residual = 4.41241e-17, No Iterations 5
PIMPLE: iteration 2
DICPCG:  Solving for Vm, Initial residual = 1.01993e-16, Final residual = 1.01993e-16, No Iterations 0
ExecutionTime = 1 s  ClockTime = 1 s

Time = 0.198627

DEBUG cell=0 t=0.198486→0.198627 step=0.000140174 V=-1.09377 u1=0.106613 u2=0.833751 u3=0 Iion=3.06354
DEBUG cell=0 t=0.198486→0.198627 step=0.00126157 V=-1.09377 u1=0.10669 u2=0.833653 u3=0 Iion=3.06361
PIMPLE: iteration 1
DICPCG:  Solving for Vm, Initial residual = 2.92628e-05, Final residual = 4.4119e-17, No Iterations 5
PIMPLE: iteration 2
DICPCG:  Solving for Vm, Initial residual = 1.04645e-16, Final residual = 1.04645e-16, No Iterations 0
ExecutionTime = 1 s  ClockTime = 1 s

Time = 0.198767

DEBUG cell=0 t=0.198627→0.198767 step=0.000140174 V=-1.09383 u1=0.10669 u2=0.833653 u3=0 Iion=3.06361
DEBUG cell=0 t=0.198627→0.198767 step=0.00126157 V=-1.09383 u1=0.106766 u2=0.833556 u3=0 Iion=3.06368
PIMPLE: iteration 1
DICPCG:  Solving for Vm, Initial residual = 2.92594e-05, Final residual = 4.41138e-17, No Iterations 5
PIMPLE: iteration 2
DICPCG:  Solving for Vm, Initial residual = 1.03932e-16, Final residual = 1.03932e-16, No Iterations 0
ExecutionTime = 1 s  ClockTime = 1 s

Time = 0.198907

DEBUG cell=0 t=0.198767→0.198907 step=0.000140174 V=-1.0939 u1=0.106766 u2=0.833556 u3=0 Iion=3.06368
DEBUG cell=0 t=0.198767→0.198907 step=0.00126157 V=-1.0939 u1=0.106842 u2=0.833458 u3=0 Iion=3.06375
PIMPLE: iteration 1
DICPCG:  Solving for Vm, Initial residual = 2.92559e-05, Final residual = 4.41087e-17, No Iterations 5
PIMPLE: iteration 2
DICPCG:  Solving for Vm, Initial residual = 1.02785e-16, Final residual = 1.02785e-16, No Iterations 0
ExecutionTime = 1 s  ClockTime = 1 s

Time = 0.199047

DEBUG cell=0 t=0.198907→0.199047 step=0.000140174 V=-1.09396 u1=0.106842 u2=0.833458 u3=0 Iion=3.06375
DEBUG cell=0 t=0.198907→0.199047 step=0.00126157 V=-1.09396 u1=0.106919 u2=0.833361 u3=0 Iion=3.06383
PIMPLE: iteration 1
DICPCG:  Solving for Vm, Initial residual = 2.92525e-05, Final residual = 4.41035e-17, No Iterations 5
PIMPLE: iteration 2
DICPCG:  Solving for Vm, Initial residual = 1.02677e-16, Final residual = 1.02677e-16, No Iterations 0
ExecutionTime = 1 s  ClockTime = 1 s

Time = 0.199187

DEBUG cell=0 t=0.199047→0.199187 step=0.000140174 V=-1.09403 u1=0.106919 u2=0.833361 u3=0 Iion=3.06383
DEBUG cell=0 t=0.199047→0.199187 step=0.00126157 V=-1.09403 u1=0.106995 u2=0.833264 u3=0 Iion=3.0639
PIMPLE: iteration 1
DICPCG:  Solving for Vm, Initial residual = 2.92491e-05, Final residual = 4.40984e-17, No Iterations 5
PIMPLE: iteration 2
DICPCG:  Solving for Vm, Initial residual = 1.02189e-16, Final residual = 1.02189e-16, No Iterations 0
ExecutionTime = 1 s  ClockTime = 1 s

Time = 0.199327

DEBUG cell=0 t=0.199187→0.199327 step=0.000140174 V=-1.09409 u1=0.106995 u2=0.833264 u3=0 Iion=3.0639
DEBUG cell=0 t=0.199187→0.199327 step=0.00126157 V=-1.09409 u1=0.107072 u2=0.833166 u3=0 Iion=3.06397
PIMPLE: iteration 1
DICPCG:  Solving for Vm, Initial residual = 2.92457e-05, Final residual = 4.40932e-17, No Iterations 5
PIMPLE: iteration 2
DICPCG:  Solving for Vm, Initial residual = 1.04807e-16, Final residual = 1.04807e-16, No Iterations 0
ExecutionTime = 1 s  ClockTime = 1 s

Time = 0.199468

DEBUG cell=0 t=0.199327→0.199468 step=0.000140174 V=-1.09415 u1=0.107072 u2=0.833166 u3=0 Iion=3.06397
DEBUG cell=0 t=0.199327→0.199468 step=0.00126157 V=-1.09415 u1=0.107148 u2=0.833069 u3=0 Iion=3.06404
PIMPLE: iteration 1
DICPCG:  Solving for Vm, Initial residual = 2.92423e-05, Final residual = 4.40881e-17, No Iterations 5
PIMPLE: iteration 2
DICPCG:  Solving for Vm, Initial residual = 1.01797e-16, Final residual = 1.01797e-16, No Iterations 0
ExecutionTime = 1 s  ClockTime = 1 s

Time = 0.199608

DEBUG cell=0 t=0.199468→0.199608 step=0.000140174 V=-1.09422 u1=0.107148 u2=0.833069 u3=0 Iion=3.06404
DEBUG cell=0 t=0.199468→0.199608 step=0.00126157 V=-1.09422 u1=0.107225 u2=0.832972 u3=0 Iion=3.06412
PIMPLE: iteration 1
DICPCG:  Solving for Vm, Initial residual = 2.92389e-05, Final residual = 4.40829e-17, No Iterations 5
PIMPLE: iteration 2
DICPCG:  Solving for Vm, Initial residual = 1.02853e-16, Final residual = 1.02853e-16, No Iterations 0
ExecutionTime = 1 s  ClockTime = 1 s

Time = 0.199748

DEBUG cell=0 t=0.199608→0.199748 step=0.000140174 V=-1.09428 u1=0.107225 u2=0.832972 u3=0 Iion=3.06412
DEBUG cell=0 t=0.199608→0.199748 step=0.00126157 V=-1.09428 u1=0.107301 u2=0.832874 u3=0 Iion=3.06419
PIMPLE: iteration 1
DICPCG:  Solving for Vm, Initial residual = 2.92355e-05, Final residual = 4.40778e-17, No Iterations 5
PIMPLE: iteration 2
DICPCG:  Solving for Vm, Initial residual = 1.02046e-16, Final residual = 1.02046e-16, No Iterations 0
ExecutionTime = 1 s  ClockTime = 1 s

Time = 0.199888

DEBUG cell=0 t=0.199748→0.199888 step=0.000140174 V=-1.09435 u1=0.107301 u2=0.832874 u3=0 Iion=3.06419
DEBUG cell=0 t=0.199748→0.199888 step=0.00126157 V=-1.09435 u1=0.107378 u2=0.832777 u3=0 Iion=3.06426
PIMPLE: iteration 1
DICPCG:  Solving for Vm, Initial residual = 2.9232e-05, Final residual = 4.40726e-17, No Iterations 5
PIMPLE: iteration 2
DICPCG:  Solving for Vm, Initial residual = 1.01637e-16, Final residual = 1.01637e-16, No Iterations 0
ExecutionTime = 1 s  ClockTime = 1 s

Time = 0.200028

DEBUG cell=0 t=0.199888→0.200028 step=0.000140174 V=-1.09441 u1=0.107378 u2=0.832777 u3=0 Iion=3.06426
DEBUG cell=0 t=0.199888→0.200028 step=0.00126157 V=-1.09441 u1=0.107454 u2=0.83268 u3=0 Iion=3.06433
PIMPLE: iteration 1
DICPCG:  Solving for Vm, Initial residual = 2.92286e-05, Final residual = 4.40675e-17, No Iterations 5
PIMPLE: iteration 2
DICPCG:  Solving for Vm, Initial residual = 1.0278e-16, Final residual = 1.0278e-16, No Iterations 0
Running postProcess via tmanufacturedFDA.

Simulation summary:
-------------------
Number of cells (N)   = 80
Solver type           = Implicit
Grid spacing (dx)     = 0.0125
Time step (dt)        = 0.000140174
Number of steps       = 1427
Final simulation time = 0.200028
-------------------

Manufactured-solution error summary (t = 0.200028):
-------------------------------------------------
Field     L1-error       L2-error       Linf-error
Vm     3.04192e-05   3.75261e-05   7.75579e-05
u1     1.25254e-07   2.07493e-07   7.76928e-07
u2     4.54841e-08   7.41774e-08   2.93082e-07
-------------------------------------------------

ExecutionTime = 1 s  ClockTime = 1 s


End

Finalising parallel run
