/*---------------------------------------------------------------------------*\
| =========                 |                                                 |
| \\      /  F ield         | OpenFOAM: The Open Source CFD Toolbox           |
|  \\    /   O peration     | Version:  2412                                  |
|   \\  /    A nd           | Website:  www.openfoam.com                      |
|    \\/     M anipulation  |                                                 |
\*---------------------------------------------------------------------------*/
Build  : _8dbc61e11c-20241220 OPENFOAM=2412 version=v2412
Arch   : "LSB;label=32;scalar=64"
Exec   : cardiacFoam -parallel
Date   : Mar 19 2026
Time   : 20:06:44
Host   : macbook
PID    : 84568
I/O    : uncollated
Case   : /Users/simaocastro/cardiacFoamv2/tutorials/manufacturedFDA
nProcs : 6
Hosts  :
(
    (macbook 6)
)
Pstream initialized with:
    floatTransfer      : false
    maxCommsSize       : 0
    nProcsSimpleSum    : 0
    nonBlockingExchange: 0 (tuning: 0)
    exchange algorithm : 0
    commsType          : nonBlocking
    polling iterations : 0
trapFpe: Floating point exception trapping enabled (FOAM_SIGFPE).
fileModificationChecking : Monitoring run-time modified files using timeStampMaster (fileModificationSkew 5, maxFileModificationPolls 20)
allowSystemOperations : Allowing user-supplied system call operations

// * * * * * * * * * * * * * * * * * * * * * * * * * * * * * * * * * * * * * //
Create time

Selecting physicsModel electroModel

Selecting electroModel monoDomainElectro

conductivity not found on disk, using value from "/Users/simaocastro/cardiacFoamv2/tutorials/manufacturedFDA/processor0/../constant/electroProperties/monoDomainElectroCoeffs"

conductivity tensor (cell 0): (0.111453 0 0 0 0.121585 0 0 0 0.0303964)
--> FOAM Warning : 
    From Foam::electroModels::monoDomainElectro::monoDomainElectro(const word &, Time &, const word &)
    in file monoDomainElectro/monoDomainElectro.C at line 322
    Stimulus box index 0 does not contain any mesh cells.
Surface-to-volume ratio chi = chi [0 -1 0 0 0 0 0] 3
Membrane capacitance Cm = Cm [-1 -4 4 0 0 2 0] 2

Using pre/post processor tmanufacturedFDA for ionic model tmanufacturedFDA.
Running preProcess with fields 3(u1 u2 u3).
Selecting ecgModel pseudoECGElectro
ECG conductivity source: monodomain conductivity field

ECG electrodes (5):
  E1  @  (-0.5 0 0)
  E2  @  (1.5 0 0)
  E3  @  (1.2 0 0)
  E4  @  (1.35 0 0)
  E5  @  (1.65 0 0)

Enabled manufactured pseudo-ECG references: qRef=96, qChecks=(6 12 24 48), dimension=1.
Time = 0.000140174

Solving the mono-domain equation for Vm using an implicit approach
DEBUG cell=0 t=0→0.000140174 step=0.000140174 V=0.999807 u1=2.00606 u2=0.99689 u3=0 Iion=0
Selecting ODE solver RKF45
DEBUG cell=0 t=0→0.000140174 step=0.00126157 V=0.999807 u1=2.00627 u2=0.99675 u3=0 Iion=-1.36633

PIMPLE: no residual control data found. Calculations will employ 2 corrector loops

PIMPLE: iteration 1
DICPCG:  Solving for Vm, Initial residual = 3.50384e-05, Final residual = 1.39018e-24, No Iterations 3
PIMPLE: iteration 2
DICPCG:  Solving for Vm, Initial residual = 5.38986e-17, Final residual = 5.38986e-17, No Iterations 0
ExecutionTime = 0.01 s  ClockTime = 0 s

Time = 0.000280348

DEBUG cell=0 t=0.000140174→0.000280348 step=0.000140174 V=0.999877 u1=2.00627 u2=0.99675 u3=0 Iion=-1.36633
DEBUG cell=0 t=0.000140174→0.000280348 step=0.00126157 V=0.999877 u1=2.00648 u2=0.99661 u3=0 Iion=-1.36629
PIMPLE: iteration 1
DICPCG:  Solving for Vm, Initial residual = 3.50343e-05, Final residual = 3.92815e-25, No Iterations 3
PIMPLE: iteration 2
DICPCG:  Solving for Vm, Initial residual = 4.24306e-17, Final residual = 4.24306e-17, No Iterations 0
ExecutionTime = 0.01 s  ClockTime = 0 s

Time = 0.000420522

DEBUG cell=0 t=0.000280348→0.000420522 step=0.000140174 V=0.999947 u1=2.00648 u2=0.99661 u3=0 Iion=-1.36629
DEBUG cell=0 t=0.000280348→0.000420522 step=0.00126157 V=0.999947 u1=2.00669 u2=0.996471 u3=0 Iion=-1.36624
PIMPLE: iteration 1
DICPCG:  Solving for Vm, Initial residual = 3.50297e-05, Final residual = 3.77237e-25, No Iterations 3
PIMPLE: iteration 2
DICPCG:  Solving for Vm, Initial residual = 5.00306e-17, Final residual = 5.00306e-17, No Iterations 0
ExecutionTime = 0.01 s  ClockTime = 0 s

Time = 0.000560696

DEBUG cell=0 t=0.000420522→0.000560696 step=0.000140174 V=1.00002 u1=2.00669 u2=0.996471 u3=0 Iion=-1.36624
DEBUG cell=0 t=0.000420522→0.000560696 step=0.00126157 V=1.00002 u1=2.0069 u2=0.996331 u3=0 Iion=-1.3662
PIMPLE: iteration 1
DICPCG:  Solving for Vm, Initial residual = 3.50249e-05, Final residual = 4.88827e-25, No Iterations 3
PIMPLE: iteration 2
DICPCG:  Solving for Vm, Initial residual = 5.39302e-17, Final residual = 5.39302e-17, No Iterations 0
ExecutionTime = 0.01 s  ClockTime = 0 s

Time = 0.00070087

DEBUG cell=0 t=0.000560696→0.00070087 step=0.000140174 V=1.00009 u1=2.0069 u2=0.996331 u3=0 Iion=-1.3662
DEBUG cell=0 t=0.000560696→0.00070087 step=0.00126157 V=1.00009 u1=2.00711 u2=0.996191 u3=0 Iion=-1.36616
PIMPLE: iteration 1
DICPCG:  Solving for Vm, Initial residual = 3.502e-05, Final residual = 3.2567e-25, No Iterations 3
PIMPLE: iteration 2
DICPCG:  Solving for Vm, Initial residual = 3.94352e-17, Final residual = 3.94352e-17, No Iterations 0
ExecutionTime = 0.01 s  ClockTime = 0 s

Time = 0.000841044

DEBUG cell=0 t=0.00070087→0.000841044 step=0.000140174 V=1.00016 u1=2.00711 u2=0.996191 u3=0 Iion=-1.36616
DEBUG cell=0 t=0.00070087→0.000841044 step=0.00126157 V=1.00016 u1=2.00732 u2=0.996052 u3=0 Iion=-1.36611
PIMPLE: iteration 1
DICPCG:  Solving for Vm, Initial residual = 3.50151e-05, Final residual = 5.43574e-25, No Iterations 3
PIMPLE: iteration 2
DICPCG:  Solving for Vm, Initial residual = 4.56764e-17, Final residual = 4.56764e-17, No Iterations 0
ExecutionTime = 0.01 s  ClockTime = 0 s

Time = 0.000981218

DEBUG cell=0 t=0.000841044→0.000981218 step=0.000140174 V=1.00023 u1=2.00732 u2=0.996052 u3=0 Iion=-1.36611
DEBUG cell=0 t=0.000841044→0.000981218 step=0.00126157 V=1.00023 u1=2.00754 u2=0.995912 u3=0 Iion=-1.36607
PIMPLE: iteration 1
DICPCG:  Solving for Vm, Initial residual = 3.50102e-05, Final residual = 4.43769e-25, No Iterations 3
PIMPLE: iteration 2
DICPCG:  Solving for Vm, Initial residual = 4.76413e-17, Final residual = 4.76413e-17, No Iterations 0
ExecutionTime = 0.01 s  ClockTime = 0 s

Time = 0.00112139

DEBUG cell=0 t=0.000981218→0.00112139 step=0.000140174 V=1.0003 u1=2.00754 u2=0.995912 u3=0 Iion=-1.36607
DEBUG cell=0 t=0.000981218→0.00112139 step=0.00126157 V=1.0003 u1=2.00775 u2=0.995773 u3=0 Iion=-1.36602
PIMPLE: iteration 1
DICPCG:  Solving for Vm, Initial residual = 3.50053e-05, Final residual = 6.49252e-25, No Iterations 3
PIMPLE: iteration 2
DICPCG:  Solving for Vm, Initial residual = 3.94269e-17, Final residual = 3.94269e-17, No Iterations 0
ExecutionTime = 0.01 s  ClockTime = 0 s

Time = 0.00126157

DEBUG cell=0 t=0.00112139→0.00126157 step=0.000140174 V=1.00037 u1=2.00775 u2=0.995773 u3=0 Iion=-1.36602
DEBUG cell=0 t=0.00112139→0.00126157 step=0.00126157 V=1.00037 u1=2.00796 u2=0.995633 u3=0 Iion=-1.36598
PIMPLE: iteration 1
DICPCG:  Solving for Vm, Initial residual = 3.50004e-05, Final residual = 5.24121e-25, No Iterations 3
PIMPLE: iteration 2
DICPCG:  Solving for Vm, Initial residual = 3.90849e-17, Final residual = 3.90849e-17, No Iterations 0
ExecutionTime = 0.01 s  ClockTime = 0 s

Time = 0.00140174

DEBUG cell=0 t=0.00126157→0.00140174 step=0.000140174 V=1.00044 u1=2.00796 u2=0.995633 u3=0 Iion=-1.36598
DEBUG cell=0 t=0.00126157→0.00140174 step=0.00126157 V=1.00044 u1=2.00817 u2=0.995494 u3=0 Iion=-1.36593
PIMPLE: iteration 1
DICPCG:  Solving for Vm, Initial residual = 3.49955e-05, Final residual = 6.66618e-25, No Iterations 3
PIMPLE: iteration 2
DICPCG:  Solving for Vm, Initial residual = 3.96928e-17, Final residual = 3.96928e-17, No Iterations 0
ExecutionTime = 0.01 s  ClockTime = 0 s

Time = 0.00154191

DEBUG cell=0 t=0.00140174→0.00154191 step=0.000140174 V=1.00051 u1=2.00817 u2=0.995494 u3=0 Iion=-1.36593
DEBUG cell=0 t=0.00140174→0.00154191 step=0.00126157 V=1.00051 u1=2.00838 u2=0.995355 u3=0 Iion=-1.36589
PIMPLE: iteration 1
DICPCG:  Solving for Vm, Initial residual = 3.49906e-05, Final residual = 7.9458e-25, No Iterations 3
PIMPLE: iteration 2
DICPCG:  Solving for Vm, Initial residual = 6.08919e-17, Final residual = 6.08919e-17, No Iterations 0
ExecutionTime = 0.01 s  ClockTime = 0 s

Time = 0.00168209

DEBUG cell=0 t=0.00154191→0.00168209 step=0.000140174 V=1.00058 u1=2.00838 u2=0.995355 u3=0 Iion=-1.36589
DEBUG cell=0 t=0.00154191→0.00168209 step=0.00126157 V=1.00058 u1=2.00859 u2=0.995215 u3=0 Iion=-1.36585
PIMPLE: iteration 1
DICPCG:  Solving for Vm, Initial residual = 3.49857e-05, Final residual = 7.90494e-25, No Iterations 3
PIMPLE: iteration 2
DICPCG:  Solving for Vm, Initial residual = 5.17291e-17, Final residual = 5.17291e-17, No Iterations 0
ExecutionTime = 0.01 s  ClockTime = 0 s

Time = 0.00182226

DEBUG cell=0 t=0.00168209→0.00182226 step=0.000140174 V=1.00065 u1=2.00859 u2=0.995215 u3=0 Iion=-1.36585
DEBUG cell=0 t=0.00168209→0.00182226 step=0.00126157 V=1.00065 u1=2.0088 u2=0.995076 u3=0 Iion=-1.3658
PIMPLE: iteration 1
DICPCG:  Solving for Vm, Initial residual = 3.49808e-05, Final residual = 5.48495e-25, No Iterations 3
PIMPLE: iteration 2
DICPCG:  Solving for Vm, Initial residual = 3.82938e-17, Final residual = 3.82938e-17, No Iterations 0
ExecutionTime = 0.01 s  ClockTime = 0 s

Time = 0.00196244

DEBUG cell=0 t=0.00182226→0.00196244 step=0.000140174 V=1.00072 u1=2.0088 u2=0.995076 u3=0 Iion=-1.3658
DEBUG cell=0 t=0.00182226→0.00196244 step=0.00126157 V=1.00072 u1=2.00901 u2=0.994937 u3=0 Iion=-1.36576
PIMPLE: iteration 1
DICPCG:  Solving for Vm, Initial residual = 3.49759e-05, Final residual = 4.70266e-25, No Iterations 3
PIMPLE: iteration 2
DICPCG:  Solving for Vm, Initial residual = 5.27054e-17, Final residual = 5.27054e-17, No Iterations 0
ExecutionTime = 0.01 s  ClockTime = 0 s

Time = 0.00210261

DEBUG cell=0 t=0.00196244→0.00210261 step=0.000140174 V=1.00079 u1=2.00901 u2=0.994937 u3=0 Iion=-1.36576
DEBUG cell=0 t=0.00196244→0.00210261 step=0.00126157 V=1.00079 u1=2.00922 u2=0.994798 u3=0 Iion=-1.36571
PIMPLE: iteration 1
DICPCG:  Solving for Vm, Initial residual = 3.4971e-05, Final residual = 7.77616e-25, No Iterations 3
PIMPLE: iteration 2
DICPCG:  Solving for Vm, Initial residual = 5.65e-17, Final residual = 5.65e-17, No Iterations 0
ExecutionTime = 0.01 s  ClockTime = 0 s

Time = 0.00224278

DEBUG cell=0 t=0.00210261→0.00224278 step=0.000140174 V=1.00086 u1=2.00922 u2=0.994798 u3=0 Iion=-1.36571
DEBUG cell=0 t=0.00210261→0.00224278 step=0.00126157 V=1.00086 u1=2.00943 u2=0.994659 u3=0 Iion=-1.36567
PIMPLE: iteration 1
DICPCG:  Solving for Vm, Initial residual = 3.49662e-05, Final residual = 4.74415e-25, No Iterations 3
PIMPLE: iteration 2
DICPCG:  Solving for Vm, Initial residual = 4.95104e-17, Final residual = 4.95104e-17, No Iterations 0
ExecutionTime = 0.01 s  ClockTime = 0 s

Time = 0.00238296

DEBUG cell=0 t=0.00224278→0.00238296 step=0.000140174 V=1.00093 u1=2.00943 u2=0.994659 u3=0 Iion=-1.36567
DEBUG cell=0 t=0.00224278→0.00238296 step=0.00126157 V=1.00093 u1=2.00965 u2=0.99452 u3=0 Iion=-1.36562
PIMPLE: iteration 1
DICPCG:  Solving for Vm, Initial residual = 3.49613e-05, Final residual = 5.29251e-25, No Iterations 3
PIMPLE: iteration 2
DICPCG:  Solving for Vm, Initial residual = 5.41185e-17, Final residual = 5.41185e-17, No Iterations 0
ExecutionTime = 0.01 s  ClockTime = 0 s

Time = 0.00252313

DEBUG cell=0 t=0.00238296→0.00252313 step=0.000140174 V=1.001 u1=2.00965 u2=0.99452 u3=0 Iion=-1.36562
DEBUG cell=0 t=0.00238296→0.00252313 step=0.00126157 V=1.001 u1=2.00986 u2=0.994381 u3=0 Iion=-1.36558
PIMPLE: iteration 1
DICPCG:  Solving for Vm, Initial residual = 3.49564e-05, Final residual = 7.50421e-25, No Iterations 3
PIMPLE: iteration 2
DICPCG:  Solving for Vm, Initial residual = 5.3301e-17, Final residual = 5.3301e-17, No Iterations 0
ExecutionTime = 0.01 s  ClockTime = 0 s

Time = 0.00266331

DEBUG cell=0 t=0.00252313→0.00266331 step=0.000140174 V=1.00107 u1=2.00986 u2=0.994381 u3=0 Iion=-1.36558
DEBUG cell=0 t=0.00252313→0.00266331 step=0.00126157 V=1.00107 u1=2.01007 u2=0.994242 u3=0 Iion=-1.36554
PIMPLE: iteration 1
DICPCG:  Solving for Vm, Initial residual = 3.49515e-05, Final residual = 4.29261e-25, No Iterations 3
PIMPLE: iteration 2
DICPCG:  Solving for Vm, Initial residual = 5.5874e-17, Final residual = 5.5874e-17, No Iterations 0
ExecutionTime = 0.01 s  ClockTime = 0 s

Time = 0.00280348

DEBUG cell=0 t=0.00266331→0.00280348 step=0.000140174 V=1.00114 u1=2.01007 u2=0.994242 u3=0 Iion=-1.36554
DEBUG cell=0 t=0.00266331→0.00280348 step=0.00126157 V=1.00114 u1=2.01028 u2=0.994103 u3=0 Iion=-1.36549
PIMPLE: iteration 1
DICPCG:  Solving for Vm, Initial residual = 3.49466e-05, Final residual = 5.39126e-25, No Iterations 3
PIMPLE: iteration 2
DICPCG:  Solving for Vm, Initial residual = 4.90219e-17, Final residual = 4.90219e-17, No Iterations 0
ExecutionTime = 0.01 s  ClockTime = 0 s

Time = 0.00294365

DEBUG cell=0 t=0.00280348→0.00294365 step=0.000140174 V=1.00121 u1=2.01028 u2=0.994103 u3=0 Iion=-1.36549
DEBUG cell=0 t=0.00280348→0.00294365 step=0.00126157 V=1.00121 u1=2.01049 u2=0.993964 u3=0 Iion=-1.36545
PIMPLE: iteration 1
DICPCG:  Solving for Vm, Initial residual = 3.49417e-05, Final residual = 4.44798e-25, No Iterations 3
PIMPLE: iteration 2
DICPCG:  Solving for Vm, Initial residual = 5.27474e-17, Final residual = 5.27474e-17, No Iterations 0
ExecutionTime = 0.01 s  ClockTime = 0 s

Time = 0.00308383

DEBUG cell=0 t=0.00294365→0.00308383 step=0.000140174 V=1.00128 u1=2.01049 u2=0.993964 u3=0 Iion=-1.36545
DEBUG cell=0 t=0.00294365→0.00308383 step=0.00126157 V=1.00128 u1=2.0107 u2=0.993825 u3=0 Iion=-1.3654
PIMPLE: iteration 1
DICPCG:  Solving for Vm, Initial residual = 3.49368e-05, Final residual = 4.20513e-25, No Iterations 3
PIMPLE: iteration 2
DICPCG:  Solving for Vm, Initial residual = 3.57952e-17, Final residual = 3.57952e-17, No Iterations 0
ExecutionTime = 0.01 s  ClockTime = 0 s

Time = 0.003224

DEBUG cell=0 t=0.00308383→0.003224 step=0.000140174 V=1.00135 u1=2.0107 u2=0.993825 u3=0 Iion=-1.3654
DEBUG cell=0 t=0.00308383→0.003224 step=0.00126157 V=1.00135 u1=2.01091 u2=0.993686 u3=0 Iion=-1.36536
PIMPLE: iteration 1
DICPCG:  Solving for Vm, Initial residual = 3.4932e-05, Final residual = 4.86797e-25, No Iterations 3
PIMPLE: iteration 2
DICPCG:  Solving for Vm, Initial residual = 4.26394e-17, Final residual = 4.26394e-17, No Iterations 0
ExecutionTime = 0.01 s  ClockTime = 0 s

Time = 0.00336418

DEBUG cell=0 t=0.003224→0.00336418 step=0.000140174 V=1.00142 u1=2.01091 u2=0.993686 u3=0 Iion=-1.36536
DEBUG cell=0 t=0.003224→0.00336418 step=0.00126157 V=1.00142 u1=2.01112 u2=0.993547 u3=0 Iion=-1.36532
PIMPLE: iteration 1
DICPCG:  Solving for Vm, Initial residual = 3.49271e-05, Final residual = 4.82352e-25, No Iterations 3
PIMPLE: iteration 2
DICPCG:  Solving for Vm, Initial residual = 4.86015e-17, Final residual = 4.86015e-17, No Iterations 0
ExecutionTime = 0.01 s  ClockTime = 0 s

Time = 0.00350435

DEBUG cell=0 t=0.00336418→0.00350435 step=0.000140174 V=1.00149 u1=2.01112 u2=0.993547 u3=0 Iion=-1.36532
DEBUG cell=0 t=0.00336418→0.00350435 step=0.00126157 V=1.00149 u1=2.01133 u2=0.993408 u3=0 Iion=-1.36527
PIMPLE: iteration 1
DICPCG:  Solving for Vm, Initial residual = 3.49222e-05, Final residual = 3.9161e-25, No Iterations 3
PIMPLE: iteration 2
DICPCG:  Solving for Vm, Initial residual = 4.90387e-17, Final residual = 4.90387e-17, No Iterations 0
ExecutionTime = 0.01 s  ClockTime = 0 s

Time = 0.00364452

DEBUG cell=0 t=0.00350435→0.00364452 step=0.000140174 V=1.00156 u1=2.01133 u2=0.993408 u3=0 Iion=-1.36527
DEBUG cell=0 t=0.00350435→0.00364452 step=0.00126157 V=1.00156 u1=2.01155 u2=0.993269 u3=0 Iion=-1.36523
PIMPLE: iteration 1
DICPCG:  Solving for Vm, Initial residual = 3.49173e-05, Final residual = 4.39581e-25, No Iterations 3
PIMPLE: iteration 2
DICPCG:  Solving for Vm, Initial residual = 4.7612e-17, Final residual = 4.7612e-17, No Iterations 0
ExecutionTime = 0.01 s  ClockTime = 0 s

Time = 0.0037847

DEBUG cell=0 t=0.00364452→0.0037847 step=0.000140174 V=1.00163 u1=2.01155 u2=0.993269 u3=0 Iion=-1.36523
DEBUG cell=0 t=0.00364452→0.0037847 step=0.00126157 V=1.00163 u1=2.01176 u2=0.993131 u3=0 Iion=-1.36518
PIMPLE: iteration 1
DICPCG:  Solving for Vm, Initial residual = 3.49124e-05, Final residual = 7.33841e-25, No Iterations 3
PIMPLE: iteration 2
DICPCG:  Solving for Vm, Initial residual = 4.22887e-17, Final residual = 4.22887e-17, No Iterations 0
ExecutionTime = 0.01 s  ClockTime = 0 s

Time = 0.00392487

DEBUG cell=0 t=0.0037847→0.00392487 step=0.000140174 V=1.0017 u1=2.01176 u2=0.993131 u3=0 Iion=-1.36518
DEBUG cell=0 t=0.0037847→0.00392487 step=0.00126157 V=1.0017 u1=2.01197 u2=0.992992 u3=0 Iion=-1.36514
PIMPLE: iteration 1
DICPCG:  Solving for Vm, Initial residual = 3.49076e-05, Final residual = 4.66459e-25, No Iterations 3
PIMPLE: iteration 2
DICPCG:  Solving for Vm, Initial residual = 5.64487e-17, Final residual = 5.64487e-17, No Iterations 0
ExecutionTime = 0.01 s  ClockTime = 0 s

Time = 0.00406505

DEBUG cell=0 t=0.00392487→0.00406505 step=0.000140174 V=1.00177 u1=2.01197 u2=0.992992 u3=0 Iion=-1.36514
DEBUG cell=0 t=0.00392487→0.00406505 step=0.00126157 V=1.00177 u1=2.01218 u2=0.992853 u3=0 Iion=-1.3651
PIMPLE: iteration 1
DICPCG:  Solving for Vm, Initial residual = 3.49027e-05, Final residual = 4.89894e-25, No Iterations 3
PIMPLE: iteration 2
DICPCG:  Solving for Vm, Initial residual = 4.41462e-17, Final residual = 4.41462e-17, No Iterations 0
ExecutionTime = 0.01 s  ClockTime = 0 s

Time = 0.00420522

DEBUG cell=0 t=0.00406505→0.00420522 step=0.000140174 V=1.00184 u1=2.01218 u2=0.992853 u3=0 Iion=-1.3651
DEBUG cell=0 t=0.00406505→0.00420522 step=0.00126157 V=1.00184 u1=2.01239 u2=0.992715 u3=0 Iion=-1.36505
PIMPLE: iteration 1
DICPCG:  Solving for Vm, Initial residual = 3.48978e-05, Final residual = 4.15412e-25, No Iterations 3
PIMPLE: iteration 2
DICPCG:  Solving for Vm, Initial residual = 5.10542e-17, Final residual = 5.10542e-17, No Iterations 0
ExecutionTime = 0.01 s  ClockTime = 0 s

Time = 0.00434539

DEBUG cell=0 t=0.00420522→0.00434539 step=0.000140174 V=1.00191 u1=2.01239 u2=0.992715 u3=0 Iion=-1.36505
DEBUG cell=0 t=0.00420522→0.00434539 step=0.00126157 V=1.00191 u1=2.0126 u2=0.992576 u3=0 Iion=-1.36501
PIMPLE: iteration 1
DICPCG:  Solving for Vm, Initial residual = 3.4893e-05, Final residual = 1.00162e-24, No Iterations 3
PIMPLE: iteration 2
DICPCG:  Solving for Vm, Initial residual = 5.39301e-17, Final residual = 5.39301e-17, No Iterations 0
ExecutionTime = 0.01 s  ClockTime = 0 s

Time = 0.00448557

DEBUG cell=0 t=0.00434539→0.00448557 step=0.000140174 V=1.00198 u1=2.0126 u2=0.992576 u3=0 Iion=-1.36501
DEBUG cell=0 t=0.00434539→0.00448557 step=0.00126157 V=1.00198 u1=2.01281 u2=0.992438 u3=0 Iion=-1.36496
PIMPLE: iteration 1
DICPCG:  Solving for Vm, Initial residual = 3.48881e-05, Final residual = 6.88075e-25, No Iterations 3
PIMPLE: iteration 2
DICPCG:  Solving for Vm, Initial residual = 4.93873e-17, Final residual = 4.93873e-17, No Iterations 0
ExecutionTime = 0.01 s  ClockTime = 0 s

Time = 0.00462574

DEBUG cell=0 t=0.00448557→0.00462574 step=0.000140174 V=1.00205 u1=2.01281 u2=0.992438 u3=0 Iion=-1.36496
DEBUG cell=0 t=0.00448557→0.00462574 step=0.00126157 V=1.00205 u1=2.01302 u2=0.992299 u3=0 Iion=-1.36492
PIMPLE: iteration 1
DICPCG:  Solving for Vm, Initial residual = 3.48832e-05, Final residual = 5.51528e-25, No Iterations 3
PIMPLE: iteration 2
DICPCG:  Solving for Vm, Initial residual = 5.04677e-17, Final residual = 5.04677e-17, No Iterations 0
ExecutionTime = 0.01 s  ClockTime = 0 s

Time = 0.00476592

DEBUG cell=0 t=0.00462574→0.00476592 step=0.000140174 V=1.00212 u1=2.01302 u2=0.992299 u3=0 Iion=-1.36492
DEBUG cell=0 t=0.00462574→0.00476592 step=0.00126157 V=1.00212 u1=2.01323 u2=0.992161 u3=0 Iion=-1.36488
PIMPLE: iteration 1
DICPCG:  Solving for Vm, Initial residual = 3.48784e-05, Final residual = 7.14661e-25, No Iterations 3
PIMPLE: iteration 2
DICPCG:  Solving for Vm, Initial residual = 4.00666e-17, Final residual = 4.00666e-17, No Iterations 0
ExecutionTime = 0.01 s  ClockTime = 0 s

Time = 0.00490609

DEBUG cell=0 t=0.00476592→0.00490609 step=0.000140174 V=1.00219 u1=2.01323 u2=0.992161 u3=0 Iion=-1.36488
DEBUG cell=0 t=0.00476592→0.00490609 step=0.00126157 V=1.00219 u1=2.01344 u2=0.992022 u3=0 Iion=-1.36483
PIMPLE: iteration 1
DICPCG:  Solving for Vm, Initial residual = 3.48735e-05, Final residual = 3.81309e-25, No Iterations 3
PIMPLE: iteration 2
DICPCG:  Solving for Vm, Initial residual = 5.5202e-17, Final residual = 5.5202e-17, No Iterations 0
ExecutionTime = 0.01 s  ClockTime = 0 s

Time = 0.00504626

DEBUG cell=0 t=0.00490609→0.00504626 step=0.000140174 V=1.00226 u1=2.01344 u2=0.992022 u3=0 Iion=-1.36483
DEBUG cell=0 t=0.00490609→0.00504626 step=0.00126157 V=1.00226 u1=2.01365 u2=0.991884 u3=0 Iion=-1.36479
PIMPLE: iteration 1
DICPCG:  Solving for Vm, Initial residual = 3.48686e-05, Final residual = 6.28515e-25, No Iterations 3
PIMPLE: iteration 2
DICPCG:  Solving for Vm, Initial residual = 4.33796e-17, Final residual = 4.33796e-17, No Iterations 0
ExecutionTime = 0.01 s  ClockTime = 0 s

Time = 0.00518644

DEBUG cell=0 t=0.00504626→0.00518644 step=0.000140174 V=1.00233 u1=2.01365 u2=0.991884 u3=0 Iion=-1.36479
DEBUG cell=0 t=0.00504626→0.00518644 step=0.00126157 V=1.00233 u1=2.01387 u2=0.991746 u3=0 Iion=-1.36474
PIMPLE: iteration 1
DICPCG:  Solving for Vm, Initial residual = 3.48638e-05, Final residual = 5.99394e-25, No Iterations 3
PIMPLE: iteration 2
DICPCG:  Solving for Vm, Initial residual = 5.17404e-17, Final residual = 5.17404e-17, No Iterations 0
ExecutionTime = 0.01 s  ClockTime = 0 s

Time = 0.00532661

DEBUG cell=0 t=0.00518644→0.00532661 step=0.000140174 V=1.0024 u1=2.01387 u2=0.991746 u3=0 Iion=-1.36474
DEBUG cell=0 t=0.00518644→0.00532661 step=0.00126157 V=1.0024 u1=2.01408 u2=0.991607 u3=0 Iion=-1.3647
PIMPLE: iteration 1
DICPCG:  Solving for Vm, Initial residual = 3.48589e-05, Final residual = 1.06175e-24, No Iterations 3
PIMPLE: iteration 2
DICPCG:  Solving for Vm, Initial residual = 4.2561e-17, Final residual = 4.2561e-17, No Iterations 0
ExecutionTime = 0.01 s  ClockTime = 0 s

Time = 0.00546679

DEBUG cell=0 t=0.00532661→0.00546679 step=0.000140174 V=1.00247 u1=2.01408 u2=0.991607 u3=0 Iion=-1.3647
DEBUG cell=0 t=0.00532661→0.00546679 step=0.00126157 V=1.00247 u1=2.01429 u2=0.991469 u3=0 Iion=-1.36466
PIMPLE: iteration 1
DICPCG:  Solving for Vm, Initial residual = 3.4854e-05, Final residual = 4.01139e-25, No Iterations 3
PIMPLE: iteration 2
DICPCG:  Solving for Vm, Initial residual = 4.4691e-17, Final residual = 4.4691e-17, No Iterations 0
ExecutionTime = 0.01 s  ClockTime = 0 s

Time = 0.00560696

DEBUG cell=0 t=0.00546679→0.00560696 step=0.000140174 V=1.00254 u1=2.01429 u2=0.991469 u3=0 Iion=-1.36466
DEBUG cell=0 t=0.00546679→0.00560696 step=0.00126157 V=1.00254 u1=2.0145 u2=0.991331 u3=0 Iion=-1.36461
PIMPLE: iteration 1
DICPCG:  Solving for Vm, Initial residual = 3.48492e-05, Final residual = 5.30412e-25, No Iterations 3
PIMPLE: iteration 2
DICPCG:  Solving for Vm, Initial residual = 5.23728e-17, Final residual = 5.23728e-17, No Iterations 0
ExecutionTime = 0.01 s  ClockTime = 0 s

Time = 0.00574713

DEBUG cell=0 t=0.00560696→0.00574713 step=0.000140174 V=1.00261 u1=2.0145 u2=0.991331 u3=0 Iion=-1.36461
DEBUG cell=0 t=0.00560696→0.00574713 step=0.00126157 V=1.00261 u1=2.01471 u2=0.991193 u3=0 Iion=-1.36457
PIMPLE: iteration 1
DICPCG:  Solving for Vm, Initial residual = 3.48443e-05, Final residual = 6.45957e-25, No Iterations 3
PIMPLE: iteration 2
DICPCG:  Solving for Vm, Initial residual = 4.29921e-17, Final residual = 4.29921e-17, No Iterations 0
ExecutionTime = 0.01 s  ClockTime = 0 s

Time = 0.00588731

DEBUG cell=0 t=0.00574713→0.00588731 step=0.000140174 V=1.00268 u1=2.01471 u2=0.991193 u3=0 Iion=-1.36457
DEBUG cell=0 t=0.00574713→0.00588731 step=0.00126157 V=1.00268 u1=2.01492 u2=0.991055 u3=0 Iion=-1.36452
PIMPLE: iteration 1
DICPCG:  Solving for Vm, Initial residual = 3.48395e-05, Final residual = 5.69796e-25, No Iterations 3
PIMPLE: iteration 2
DICPCG:  Solving for Vm, Initial residual = 5.23317e-17, Final residual = 5.23317e-17, No Iterations 0
ExecutionTime = 0.01 s  ClockTime = 0 s

Time = 0.00602748

DEBUG cell=0 t=0.00588731→0.00602748 step=0.000140174 V=1.00275 u1=2.01492 u2=0.991055 u3=0 Iion=-1.36452
DEBUG cell=0 t=0.00588731→0.00602748 step=0.00126157 V=1.00275 u1=2.01513 u2=0.990917 u3=0 Iion=-1.36448
PIMPLE: iteration 1
DICPCG:  Solving for Vm, Initial residual = 3.48346e-05, Final residual = 4.43313e-25, No Iterations 3
PIMPLE: iteration 2
DICPCG:  Solving for Vm, Initial residual = 4.95187e-17, Final residual = 4.95187e-17, No Iterations 0
ExecutionTime = 0.01 s  ClockTime = 0 s

Time = 0.00616766

DEBUG cell=0 t=0.00602748→0.00616766 step=0.000140174 V=1.00282 u1=2.01513 u2=0.990917 u3=0 Iion=-1.36448
DEBUG cell=0 t=0.00602748→0.00616766 step=0.00126157 V=1.00282 u1=2.01534 u2=0.990779 u3=0 Iion=-1.36444
PIMPLE: iteration 1
DICPCG:  Solving for Vm, Initial residual = 3.48298e-05, Final residual = 6.32112e-25, No Iterations 3
PIMPLE: iteration 2
DICPCG:  Solving for Vm, Initial residual = 4.9346e-17, Final residual = 4.9346e-17, No Iterations 0
ExecutionTime = 0.01 s  ClockTime = 0 s

Time = 0.00630783

DEBUG cell=0 t=0.00616766→0.00630783 step=0.000140174 V=1.00289 u1=2.01534 u2=0.990779 u3=0 Iion=-1.36444
DEBUG cell=0 t=0.00616766→0.00630783 step=0.00126157 V=1.00289 u1=2.01555 u2=0.990641 u3=0 Iion=-1.36439
PIMPLE: iteration 1
DICPCG:  Solving for Vm, Initial residual = 3.48249e-05, Final residual = 7.8916e-25, No Iterations 3
PIMPLE: iteration 2
DICPCG:  Solving for Vm, Initial residual = 4.71428e-17, Final residual = 4.71428e-17, No Iterations 0
ExecutionTime = 0.01 s  ClockTime = 0 s

Time = 0.006448

DEBUG cell=0 t=0.00630783→0.006448 step=0.000140174 V=1.00296 u1=2.01555 u2=0.990641 u3=0 Iion=-1.36439
DEBUG cell=0 t=0.00630783→0.006448 step=0.00126157 V=1.00296 u1=2.01576 u2=0.990503 u3=0 Iion=-1.36435
PIMPLE: iteration 1
DICPCG:  Solving for Vm, Initial residual = 3.48201e-05, Final residual = 7.78216e-25, No Iterations 3
PIMPLE: iteration 2
DICPCG:  Solving for Vm, Initial residual = 4.39247e-17, Final residual = 4.39247e-17, No Iterations 0
ExecutionTime = 0.01 s  ClockTime = 0 s

Time = 0.00658818

DEBUG cell=0 t=0.006448→0.00658818 step=0.000140174 V=1.00303 u1=2.01576 u2=0.990503 u3=0 Iion=-1.36435
DEBUG cell=0 t=0.006448→0.00658818 step=0.00126157 V=1.00303 u1=2.01598 u2=0.990365 u3=0 Iion=-1.36431
PIMPLE: iteration 1
DICPCG:  Solving for Vm, Initial residual = 3.48152e-05, Final residual = 4.18812e-25, No Iterations 3
PIMPLE: iteration 2
DICPCG:  Solving for Vm, Initial residual = 4.16207e-17, Final residual = 4.16207e-17, No Iterations 0
ExecutionTime = 0.01 s  ClockTime = 0 s

Time = 0.00672835

DEBUG cell=0 t=0.00658818→0.00672835 step=0.000140174 V=1.0031 u1=2.01598 u2=0.990365 u3=0 Iion=-1.36431
DEBUG cell=0 t=0.00658818→0.00672835 step=0.00126157 V=1.0031 u1=2.01619 u2=0.990227 u3=0 Iion=-1.36426
PIMPLE: iteration 1
DICPCG:  Solving for Vm, Initial residual = 3.48104e-05, Final residual = 5.2171e-25, No Iterations 3
PIMPLE: iteration 2
DICPCG:  Solving for Vm, Initial residual = 5.03135e-17, Final residual = 5.03135e-17, No Iterations 0
ExecutionTime = 0.01 s  ClockTime = 0 s

Time = 0.00686853

DEBUG cell=0 t=0.00672835→0.00686853 step=0.000140174 V=1.00317 u1=2.01619 u2=0.990227 u3=0 Iion=-1.36426
DEBUG cell=0 t=0.00672835→0.00686853 step=0.00126157 V=1.00317 u1=2.0164 u2=0.990089 u3=0 Iion=-1.36422
PIMPLE: iteration 1
DICPCG:  Solving for Vm, Initial residual = 3.48055e-05, Final residual = 4.90622e-25, No Iterations 3
PIMPLE: iteration 2
DICPCG:  Solving for Vm, Initial residual = 4.55734e-17, Final residual = 4.55734e-17, No Iterations 0
ExecutionTime = 0.01 s  ClockTime = 0 s

Time = 0.0070087

DEBUG cell=0 t=0.00686853→0.0070087 step=0.000140174 V=1.00324 u1=2.0164 u2=0.990089 u3=0 Iion=-1.36422
DEBUG cell=0 t=0.00686853→0.0070087 step=0.00126157 V=1.00324 u1=2.01661 u2=0.989951 u3=0 Iion=-1.36417
PIMPLE: iteration 1
DICPCG:  Solving for Vm, Initial residual = 3.48007e-05, Final residual = 4.93078e-25, No Iterations 3
PIMPLE: iteration 2
DICPCG:  Solving for Vm, Initial residual = 5.44339e-17, Final residual = 5.44339e-17, No Iterations 0
ExecutionTime = 0.01 s  ClockTime = 0 s

Time = 0.00714887

DEBUG cell=0 t=0.0070087→0.00714887 step=0.000140174 V=1.0033 u1=2.01661 u2=0.989951 u3=0 Iion=-1.36417
DEBUG cell=0 t=0.0070087→0.00714887 step=0.00126157 V=1.0033 u1=2.01682 u2=0.989813 u3=0 Iion=-1.36413
PIMPLE: iteration 1
DICPCG:  Solving for Vm, Initial residual = 3.47958e-05, Final residual = 3.8039e-25, No Iterations 3
PIMPLE: iteration 2
DICPCG:  Solving for Vm, Initial residual = 5.52081e-17, Final residual = 5.52081e-17, No Iterations 0
ExecutionTime = 0.01 s  ClockTime = 0 s

Time = 0.00728905

DEBUG cell=0 t=0.00714887→0.00728905 step=0.000140174 V=1.00337 u1=2.01682 u2=0.989813 u3=0 Iion=-1.36413
DEBUG cell=0 t=0.00714887→0.00728905 step=0.00126157 V=1.00337 u1=2.01703 u2=0.989676 u3=0 Iion=-1.36409
PIMPLE: iteration 1
DICPCG:  Solving for Vm, Initial residual = 3.4791e-05, Final residual = 5.45082e-25, No Iterations 3
PIMPLE: iteration 2
DICPCG:  Solving for Vm, Initial residual = 4.93862e-17, Final residual = 4.93862e-17, No Iterations 0
ExecutionTime = 0.01 s  ClockTime = 0 s

Time = 0.00742922

DEBUG cell=0 t=0.00728905→0.00742922 step=0.000140174 V=1.00344 u1=2.01703 u2=0.989676 u3=0 Iion=-1.36409
DEBUG cell=0 t=0.00728905→0.00742922 step=0.00126157 V=1.00344 u1=2.01724 u2=0.989538 u3=0 Iion=-1.36404
PIMPLE: iteration 1
DICPCG:  Solving for Vm, Initial residual = 3.47861e-05, Final residual = 5.70273e-25, No Iterations 3
PIMPLE: iteration 2
DICPCG:  Solving for Vm, Initial residual = 5.49637e-17, Final residual = 5.49637e-17, No Iterations 0
ExecutionTime = 0.01 s  ClockTime = 0 s

Time = 0.0075694

DEBUG cell=0 t=0.00742922→0.0075694 step=0.000140174 V=1.00351 u1=2.01724 u2=0.989538 u3=0 Iion=-1.36404
DEBUG cell=0 t=0.00742922→0.0075694 step=0.00126157 V=1.00351 u1=2.01745 u2=0.9894 u3=0 Iion=-1.364
PIMPLE: iteration 1
DICPCG:  Solving for Vm, Initial residual = 3.47813e-05, Final residual = 9.00669e-25, No Iterations 3
PIMPLE: iteration 2
DICPCG:  Solving for Vm, Initial residual = 4.92779e-17, Final residual = 4.92779e-17, No Iterations 0
ExecutionTime = 0.01 s  ClockTime = 0 s

Time = 0.00770957

DEBUG cell=0 t=0.0075694→0.00770957 step=0.000140174 V=1.00358 u1=2.01745 u2=0.9894 u3=0 Iion=-1.364
DEBUG cell=0 t=0.0075694→0.00770957 step=0.00126157 V=1.00358 u1=2.01766 u2=0.989263 u3=0 Iion=-1.36396
PIMPLE: iteration 1
DICPCG:  Solving for Vm, Initial residual = 3.47765e-05, Final residual = 4.61706e-25, No Iterations 3
PIMPLE: iteration 2
DICPCG:  Solving for Vm, Initial residual = 4.04476e-17, Final residual = 4.04476e-17, No Iterations 0
ExecutionTime = 0.01 s  ClockTime = 0 s

Time = 0.00784974

DEBUG cell=0 t=0.00770957→0.00784974 step=0.000140174 V=1.00365 u1=2.01766 u2=0.989263 u3=0 Iion=-1.36396
DEBUG cell=0 t=0.00770957→0.00784974 step=0.00126157 V=1.00365 u1=2.01787 u2=0.989125 u3=0 Iion=-1.36391
PIMPLE: iteration 1
DICPCG:  Solving for Vm, Initial residual = 3.47716e-05, Final residual = 4.79974e-25, No Iterations 3
PIMPLE: iteration 2
DICPCG:  Solving for Vm, Initial residual = 5.04884e-17, Final residual = 5.04884e-17, No Iterations 0
ExecutionTime = 0.01 s  ClockTime = 0 s

Time = 0.00798992

DEBUG cell=0 t=0.00784974→0.00798992 step=0.000140174 V=1.00372 u1=2.01787 u2=0.989125 u3=0 Iion=-1.36391
DEBUG cell=0 t=0.00784974→0.00798992 step=0.00126157 V=1.00372 u1=2.01808 u2=0.988987 u3=0 Iion=-1.36387
PIMPLE: iteration 1
DICPCG:  Solving for Vm, Initial residual = 3.47668e-05, Final residual = 7.8116e-25, No Iterations 3
PIMPLE: iteration 2
DICPCG:  Solving for Vm, Initial residual = 3.96981e-17, Final residual = 3.96981e-17, No Iterations 0
ExecutionTime = 0.01 s  ClockTime = 0 s

Time = 0.00813009

DEBUG cell=0 t=0.00798992→0.00813009 step=0.000140174 V=1.00379 u1=2.01808 u2=0.988987 u3=0 Iion=-1.36387
DEBUG cell=0 t=0.00798992→0.00813009 step=0.00126157 V=1.00379 u1=2.01829 u2=0.98885 u3=0 Iion=-1.36382
PIMPLE: iteration 1
DICPCG:  Solving for Vm, Initial residual = 3.4762e-05, Final residual = 5.56976e-25, No Iterations 3
PIMPLE: iteration 2
DICPCG:  Solving for Vm, Initial residual = 4.64578e-17, Final residual = 4.64578e-17, No Iterations 0
ExecutionTime = 0.01 s  ClockTime = 0 s

Time = 0.00827027

DEBUG cell=0 t=0.00813009→0.00827027 step=0.000140174 V=1.00386 u1=2.01829 u2=0.98885 u3=0 Iion=-1.36382
DEBUG cell=0 t=0.00813009→0.00827027 step=0.00126157 V=1.00386 u1=2.01851 u2=0.988712 u3=0 Iion=-1.36378
PIMPLE: iteration 1
DICPCG:  Solving for Vm, Initial residual = 3.47571e-05, Final residual = 4.7502e-25, No Iterations 3
PIMPLE: iteration 2
DICPCG:  Solving for Vm, Initial residual = 4.74012e-17, Final residual = 4.74012e-17, No Iterations 0
ExecutionTime = 0.02 s  ClockTime = 0 s

Time = 0.00841044

DEBUG cell=0 t=0.00827027→0.00841044 step=0.000140174 V=1.00393 u1=2.01851 u2=0.988712 u3=0 Iion=-1.36378
DEBUG cell=0 t=0.00827027→0.00841044 step=0.00126157 V=1.00393 u1=2.01872 u2=0.988575 u3=0 Iion=-1.36374
PIMPLE: iteration 1
DICPCG:  Solving for Vm, Initial residual = 3.47523e-05, Final residual = 4.34475e-25, No Iterations 3
PIMPLE: iteration 2
DICPCG:  Solving for Vm, Initial residual = 4.13464e-17, Final residual = 4.13464e-17, No Iterations 0
ExecutionTime = 0.02 s  ClockTime = 0 s

Time = 0.00855061

DEBUG cell=0 t=0.00841044→0.00855061 step=0.000140174 V=1.004 u1=2.01872 u2=0.988575 u3=0 Iion=-1.36374
DEBUG cell=0 t=0.00841044→0.00855061 step=0.00126157 V=1.004 u1=2.01893 u2=0.988438 u3=0 Iion=-1.36369
PIMPLE: iteration 1
DICPCG:  Solving for Vm, Initial residual = 3.47475e-05, Final residual = 5.56677e-25, No Iterations 3
PIMPLE: iteration 2
DICPCG:  Solving for Vm, Initial residual = 4.61776e-17, Final residual = 4.61776e-17, No Iterations 0
ExecutionTime = 0.02 s  ClockTime = 0 s

Time = 0.00869079

DEBUG cell=0 t=0.00855061→0.00869079 step=0.000140174 V=1.00407 u1=2.01893 u2=0.988438 u3=0 Iion=-1.36369
DEBUG cell=0 t=0.00855061→0.00869079 step=0.00126157 V=1.00407 u1=2.01914 u2=0.9883 u3=0 Iion=-1.36365
PIMPLE: iteration 1
DICPCG:  Solving for Vm, Initial residual = 3.47426e-05, Final residual = 9.33825e-25, No Iterations 3
PIMPLE: iteration 2
DICPCG:  Solving for Vm, Initial residual = 5.07378e-17, Final residual = 5.07378e-17, No Iterations 0
ExecutionTime = 0.02 s  ClockTime = 0 s

Time = 0.00883096

DEBUG cell=0 t=0.00869079→0.00883096 step=0.000140174 V=1.00414 u1=2.01914 u2=0.9883 u3=0 Iion=-1.36365
DEBUG cell=0 t=0.00869079→0.00883096 step=0.00126157 V=1.00414 u1=2.01935 u2=0.988163 u3=0 Iion=-1.36361
PIMPLE: iteration 1
DICPCG:  Solving for Vm, Initial residual = 3.47378e-05, Final residual = 7.61353e-25, No Iterations 3
PIMPLE: iteration 2
DICPCG:  Solving for Vm, Initial residual = 4.54614e-17, Final residual = 4.54614e-17, No Iterations 0
ExecutionTime = 0.02 s  ClockTime = 0 s

Time = 0.00897114

DEBUG cell=0 t=0.00883096→0.00897114 step=0.000140174 V=1.00421 u1=2.01935 u2=0.988163 u3=0 Iion=-1.36361
DEBUG cell=0 t=0.00883096→0.00897114 step=0.00126157 V=1.00421 u1=2.01956 u2=0.988026 u3=0 Iion=-1.36356
PIMPLE: iteration 1
DICPCG:  Solving for Vm, Initial residual = 3.4733e-05, Final residual = 7.05032e-25, No Iterations 3
PIMPLE: iteration 2
DICPCG:  Solving for Vm, Initial residual = 5.16771e-17, Final residual = 5.16771e-17, No Iterations 0
ExecutionTime = 0.02 s  ClockTime = 0 s

Time = 0.00911131

DEBUG cell=0 t=0.00897114→0.00911131 step=0.000140174 V=1.00428 u1=2.01956 u2=0.988026 u3=0 Iion=-1.36356
DEBUG cell=0 t=0.00897114→0.00911131 step=0.00126157 V=1.00428 u1=2.01977 u2=0.987888 u3=0 Iion=-1.36352
PIMPLE: iteration 1
DICPCG:  Solving for Vm, Initial residual = 3.47282e-05, Final residual = 5.50156e-25, No Iterations 3
PIMPLE: iteration 2
DICPCG:  Solving for Vm, Initial residual = 4.00816e-17, Final residual = 4.00816e-17, No Iterations 0
ExecutionTime = 0.02 s  ClockTime = 0 s

Time = 0.00925148

DEBUG cell=0 t=0.00911131→0.00925148 step=0.000140174 V=1.00435 u1=2.01977 u2=0.987888 u3=0 Iion=-1.36352
DEBUG cell=0 t=0.00911131→0.00925148 step=0.00126157 V=1.00435 u1=2.01998 u2=0.987751 u3=0 Iion=-1.36348
PIMPLE: iteration 1
DICPCG:  Solving for Vm, Initial residual = 3.47233e-05, Final residual = 6.76797e-25, No Iterations 3
PIMPLE: iteration 2
DICPCG:  Solving for Vm, Initial residual = 5.34609e-17, Final residual = 5.34609e-17, No Iterations 0
ExecutionTime = 0.02 s  ClockTime = 0 s

Time = 0.00939166

DEBUG cell=0 t=0.00925148→0.00939166 step=0.000140174 V=1.00442 u1=2.01998 u2=0.987751 u3=0 Iion=-1.36348
DEBUG cell=0 t=0.00925148→0.00939166 step=0.00126157 V=1.00442 u1=2.02019 u2=0.987614 u3=0 Iion=-1.36343
PIMPLE: iteration 1
DICPCG:  Solving for Vm, Initial residual = 3.47185e-05, Final residual = 7.38051e-25, No Iterations 3
PIMPLE: iteration 2
DICPCG:  Solving for Vm, Initial residual = 4.99092e-17, Final residual = 4.99092e-17, No Iterations 0
ExecutionTime = 0.02 s  ClockTime = 0 s

Time = 0.00953183

DEBUG cell=0 t=0.00939166→0.00953183 step=0.000140174 V=1.00449 u1=2.02019 u2=0.987614 u3=0 Iion=-1.36343
DEBUG cell=0 t=0.00939166→0.00953183 step=0.00126157 V=1.00449 u1=2.0204 u2=0.987477 u3=0 Iion=-1.36339
PIMPLE: iteration 1
DICPCG:  Solving for Vm, Initial residual = 3.47137e-05, Final residual = 5.90529e-25, No Iterations 3
PIMPLE: iteration 2
DICPCG:  Solving for Vm, Initial residual = 4.43306e-17, Final residual = 4.43306e-17, No Iterations 0
ExecutionTime = 0.02 s  ClockTime = 0 s

Time = 0.00967201

DEBUG cell=0 t=0.00953183→0.00967201 step=0.000140174 V=1.00456 u1=2.0204 u2=0.987477 u3=0 Iion=-1.36339
DEBUG cell=0 t=0.00953183→0.00967201 step=0.00126157 V=1.00456 u1=2.02061 u2=0.98734 u3=0 Iion=-1.36335
PIMPLE: iteration 1
DICPCG:  Solving for Vm, Initial residual = 3.47089e-05, Final residual = 9.50162e-25, No Iterations 3
PIMPLE: iteration 2
DICPCG:  Solving for Vm, Initial residual = 5.54094e-17, Final residual = 5.54094e-17, No Iterations 0
ExecutionTime = 0.02 s  ClockTime = 0 s

Time = 0.00981218

DEBUG cell=0 t=0.00967201→0.00981218 step=0.000140174 V=1.00463 u1=2.02061 u2=0.98734 u3=0 Iion=-1.36335
DEBUG cell=0 t=0.00967201→0.00981218 step=0.00126157 V=1.00463 u1=2.02082 u2=0.987203 u3=0 Iion=-1.3633
PIMPLE: iteration 1
DICPCG:  Solving for Vm, Initial residual = 3.47041e-05, Final residual = 5.35603e-25, No Iterations 3
PIMPLE: iteration 2
DICPCG:  Solving for Vm, Initial residual = 4.41217e-17, Final residual = 4.41217e-17, No Iterations 0
ExecutionTime = 0.02 s  ClockTime = 0 s

Time = 0.00995235

DEBUG cell=0 t=0.00981218→0.00995235 step=0.000140174 V=1.0047 u1=2.02082 u2=0.987203 u3=0 Iion=-1.3633
DEBUG cell=0 t=0.00981218→0.00995235 step=0.00126157 V=1.0047 u1=2.02104 u2=0.987066 u3=0 Iion=-1.36326
PIMPLE: iteration 1
DICPCG:  Solving for Vm, Initial residual = 3.46992e-05, Final residual = 5.57911e-25, No Iterations 3
PIMPLE: iteration 2
DICPCG:  Solving for Vm, Initial residual = 4.52335e-17, Final residual = 4.52335e-17, No Iterations 0
ExecutionTime = 0.02 s  ClockTime = 0 s

Time = 0.0100925

DEBUG cell=0 t=0.00995235→0.0100925 step=0.000140174 V=1.00477 u1=2.02104 u2=0.987066 u3=0 Iion=-1.36326
DEBUG cell=0 t=0.00995235→0.0100925 step=0.00126157 V=1.00477 u1=2.02125 u2=0.986929 u3=0 Iion=-1.36321
PIMPLE: iteration 1
DICPCG:  Solving for Vm, Initial residual = 3.46944e-05, Final residual = 5.63334e-25, No Iterations 3
PIMPLE: iteration 2
DICPCG:  Solving for Vm, Initial residual = 4.04675e-17, Final residual = 4.04675e-17, No Iterations 0
ExecutionTime = 0.02 s  ClockTime = 0 s

Time = 0.0102327

DEBUG cell=0 t=0.0100925→0.0102327 step=0.000140174 V=1.00484 u1=2.02125 u2=0.986929 u3=0 Iion=-1.36321
DEBUG cell=0 t=0.0100925→0.0102327 step=0.00126157 V=1.00484 u1=2.02146 u2=0.986792 u3=0 Iion=-1.36317
PIMPLE: iteration 1
DICPCG:  Solving for Vm, Initial residual = 3.46896e-05, Final residual = 1.07573e-24, No Iterations 3
PIMPLE: iteration 2
DICPCG:  Solving for Vm, Initial residual = 5.33336e-17, Final residual = 5.33336e-17, No Iterations 0
ExecutionTime = 0.02 s  ClockTime = 0 s

Time = 0.0103729

DEBUG cell=0 t=0.0102327→0.0103729 step=0.000140174 V=1.00491 u1=2.02146 u2=0.986792 u3=0 Iion=-1.36317
DEBUG cell=0 t=0.0102327→0.0103729 step=0.00126157 V=1.00491 u1=2.02167 u2=0.986655 u3=0 Iion=-1.36313
PIMPLE: iteration 1
DICPCG:  Solving for Vm, Initial residual = 3.46848e-05, Final residual = 5.53253e-25, No Iterations 3
PIMPLE: iteration 2
DICPCG:  Solving for Vm, Initial residual = 4.9581e-17, Final residual = 4.9581e-17, No Iterations 0
ExecutionTime = 0.02 s  ClockTime = 0 s

Time = 0.010513

DEBUG cell=0 t=0.0103729→0.010513 step=0.000140174 V=1.00498 u1=2.02167 u2=0.986655 u3=0 Iion=-1.36313
DEBUG cell=0 t=0.0103729→0.010513 step=0.00126157 V=1.00498 u1=2.02188 u2=0.986518 u3=0 Iion=-1.36308
PIMPLE: iteration 1
DICPCG:  Solving for Vm, Initial residual = 3.468e-05, Final residual = 4.2104e-25, No Iterations 3
PIMPLE: iteration 2
DICPCG:  Solving for Vm, Initial residual = 4.20126e-17, Final residual = 4.20126e-17, No Iterations 0
ExecutionTime = 0.02 s  ClockTime = 0 s

Time = 0.0106532

DEBUG cell=0 t=0.010513→0.0106532 step=0.000140174 V=1.00505 u1=2.02188 u2=0.986518 u3=0 Iion=-1.36308
DEBUG cell=0 t=0.010513→0.0106532 step=0.00126157 V=1.00505 u1=2.02209 u2=0.986381 u3=0 Iion=-1.36304
PIMPLE: iteration 1
DICPCG:  Solving for Vm, Initial residual = 3.46752e-05, Final residual = 6.74556e-25, No Iterations 3
PIMPLE: iteration 2
DICPCG:  Solving for Vm, Initial residual = 4.87298e-17, Final residual = 4.87298e-17, No Iterations 0
ExecutionTime = 0.02 s  ClockTime = 0 s

Time = 0.0107934

DEBUG cell=0 t=0.0106532→0.0107934 step=0.000140174 V=1.00512 u1=2.02209 u2=0.986381 u3=0 Iion=-1.36304
DEBUG cell=0 t=0.0106532→0.0107934 step=0.00126157 V=1.00512 u1=2.0223 u2=0.986244 u3=0 Iion=-1.363
PIMPLE: iteration 1
DICPCG:  Solving for Vm, Initial residual = 3.46704e-05, Final residual = 6.75326e-25, No Iterations 3
PIMPLE: iteration 2
DICPCG:  Solving for Vm, Initial residual = 4.23444e-17, Final residual = 4.23444e-17, No Iterations 0
ExecutionTime = 0.02 s  ClockTime = 0 s

Time = 0.0109336

DEBUG cell=0 t=0.0107934→0.0109336 step=0.000140174 V=1.00519 u1=2.0223 u2=0.986244 u3=0 Iion=-1.363
DEBUG cell=0 t=0.0107934→0.0109336 step=0.00126157 V=1.00519 u1=2.02251 u2=0.986108 u3=0 Iion=-1.36295
PIMPLE: iteration 1
DICPCG:  Solving for Vm, Initial residual = 3.46656e-05, Final residual = 7.12308e-25, No Iterations 3
PIMPLE: iteration 2
DICPCG:  Solving for Vm, Initial residual = 5.51385e-17, Final residual = 5.51385e-17, No Iterations 0
ExecutionTime = 0.02 s  ClockTime = 0 s

Time = 0.0110737

DEBUG cell=0 t=0.0109336→0.0110737 step=0.000140174 V=1.00526 u1=2.02251 u2=0.986108 u3=0 Iion=-1.36295
DEBUG cell=0 t=0.0109336→0.0110737 step=0.00126157 V=1.00526 u1=2.02272 u2=0.985971 u3=0 Iion=-1.36291
PIMPLE: iteration 1
DICPCG:  Solving for Vm, Initial residual = 3.46608e-05, Final residual = 5.47262e-25, No Iterations 3
PIMPLE: iteration 2
DICPCG:  Solving for Vm, Initial residual = 4.8112e-17, Final residual = 4.8112e-17, No Iterations 0
ExecutionTime = 0.02 s  ClockTime = 0 s

Time = 0.0112139

DEBUG cell=0 t=0.0110737→0.0112139 step=0.000140174 V=1.00533 u1=2.02272 u2=0.985971 u3=0 Iion=-1.36291
DEBUG cell=0 t=0.0110737→0.0112139 step=0.00126157 V=1.00533 u1=2.02293 u2=0.985834 u3=0 Iion=-1.36287
PIMPLE: iteration 1
DICPCG:  Solving for Vm, Initial residual = 3.4656e-05, Final residual = 5.14479e-25, No Iterations 3
PIMPLE: iteration 2
DICPCG:  Solving for Vm, Initial residual = 5.60761e-17, Final residual = 5.60761e-17, No Iterations 0
ExecutionTime = 0.02 s  ClockTime = 0 s

Time = 0.0113541

DEBUG cell=0 t=0.0112139→0.0113541 step=0.000140174 V=1.0054 u1=2.02293 u2=0.985834 u3=0 Iion=-1.36287
DEBUG cell=0 t=0.0112139→0.0113541 step=0.00126157 V=1.0054 u1=2.02314 u2=0.985697 u3=0 Iion=-1.36282
PIMPLE: iteration 1
DICPCG:  Solving for Vm, Initial residual = 3.46512e-05, Final residual = 3.68381e-25, No Iterations 3
PIMPLE: iteration 2
DICPCG:  Solving for Vm, Initial residual = 4.70251e-17, Final residual = 4.70251e-17, No Iterations 0
ExecutionTime = 0.02 s  ClockTime = 0 s

Time = 0.0114943

DEBUG cell=0 t=0.0113541→0.0114943 step=0.000140174 V=1.00547 u1=2.02314 u2=0.985697 u3=0 Iion=-1.36282
DEBUG cell=0 t=0.0113541→0.0114943 step=0.00126157 V=1.00547 u1=2.02335 u2=0.985561 u3=0 Iion=-1.36278
PIMPLE: iteration 1
DICPCG:  Solving for Vm, Initial residual = 3.46464e-05, Final residual = 4.50348e-25, No Iterations 3
PIMPLE: iteration 2
DICPCG:  Solving for Vm, Initial residual = 6.14693e-17, Final residual = 6.14693e-17, No Iterations 0
ExecutionTime = 0.02 s  ClockTime = 0 s

Time = 0.0116344

DEBUG cell=0 t=0.0114943→0.0116344 step=0.000140174 V=1.00554 u1=2.02335 u2=0.985561 u3=0 Iion=-1.36278
DEBUG cell=0 t=0.0114943→0.0116344 step=0.00126157 V=1.00554 u1=2.02356 u2=0.985424 u3=0 Iion=-1.36274
PIMPLE: iteration 1
DICPCG:  Solving for Vm, Initial residual = 3.46416e-05, Final residual = 5.29568e-25, No Iterations 3
PIMPLE: iteration 2
DICPCG:  Solving for Vm, Initial residual = 5.50181e-17, Final residual = 5.50181e-17, No Iterations 0
ExecutionTime = 0.02 s  ClockTime = 0 s

Time = 0.0117746

DEBUG cell=0 t=0.0116344→0.0117746 step=0.000140174 V=1.00561 u1=2.02356 u2=0.985424 u3=0 Iion=-1.36274
DEBUG cell=0 t=0.0116344→0.0117746 step=0.00126157 V=1.00561 u1=2.02378 u2=0.985288 u3=0 Iion=-1.36269
PIMPLE: iteration 1
DICPCG:  Solving for Vm, Initial residual = 3.46368e-05, Final residual = 5.28531e-25, No Iterations 3
PIMPLE: iteration 2
DICPCG:  Solving for Vm, Initial residual = 4.93441e-17, Final residual = 4.93441e-17, No Iterations 0
ExecutionTime = 0.02 s  ClockTime = 0 s

Time = 0.0119148

DEBUG cell=0 t=0.0117746→0.0119148 step=0.000140174 V=1.00568 u1=2.02378 u2=0.985288 u3=0 Iion=-1.36269
DEBUG cell=0 t=0.0117746→0.0119148 step=0.00126157 V=1.00568 u1=2.02399 u2=0.985151 u3=0 Iion=-1.36265
PIMPLE: iteration 1
DICPCG:  Solving for Vm, Initial residual = 3.4632e-05, Final residual = 4.66043e-25, No Iterations 3
PIMPLE: iteration 2
DICPCG:  Solving for Vm, Initial residual = 3.22638e-17, Final residual = 3.22638e-17, No Iterations 0
ExecutionTime = 0.02 s  ClockTime = 0 s

Time = 0.012055

DEBUG cell=0 t=0.0119148→0.012055 step=0.000140174 V=1.00575 u1=2.02399 u2=0.985151 u3=0 Iion=-1.36265
DEBUG cell=0 t=0.0119148→0.012055 step=0.00126157 V=1.00575 u1=2.0242 u2=0.985015 u3=0 Iion=-1.36261
PIMPLE: iteration 1
DICPCG:  Solving for Vm, Initial residual = 3.46272e-05, Final residual = 5.55139e-25, No Iterations 3
PIMPLE: iteration 2
DICPCG:  Solving for Vm, Initial residual = 3.44214e-17, Final residual = 3.44214e-17, No Iterations 0
ExecutionTime = 0.02 s  ClockTime = 0 s

Time = 0.0121951

DEBUG cell=0 t=0.012055→0.0121951 step=0.000140174 V=1.00582 u1=2.0242 u2=0.985015 u3=0 Iion=-1.36261
DEBUG cell=0 t=0.012055→0.0121951 step=0.00126157 V=1.00582 u1=2.02441 u2=0.984878 u3=0 Iion=-1.36256
PIMPLE: iteration 1
DICPCG:  Solving for Vm, Initial residual = 3.46224e-05, Final residual = 5.15449e-25, No Iterations 3
PIMPLE: iteration 2
DICPCG:  Solving for Vm, Initial residual = 4.37661e-17, Final residual = 4.37661e-17, No Iterations 0
ExecutionTime = 0.02 s  ClockTime = 0 s

Time = 0.0123353

DEBUG cell=0 t=0.0121951→0.0123353 step=0.000140174 V=1.00589 u1=2.02441 u2=0.984878 u3=0 Iion=-1.36256
DEBUG cell=0 t=0.0121951→0.0123353 step=0.00126157 V=1.00589 u1=2.02462 u2=0.984742 u3=0 Iion=-1.36252
PIMPLE: iteration 1
DICPCG:  Solving for Vm, Initial residual = 3.46176e-05, Final residual = 6.46309e-25, No Iterations 3
PIMPLE: iteration 2
DICPCG:  Solving for Vm, Initial residual = 5.90818e-17, Final residual = 5.90818e-17, No Iterations 0
ExecutionTime = 0.02 s  ClockTime = 0 s

Time = 0.0124755

DEBUG cell=0 t=0.0123353→0.0124755 step=0.000140174 V=1.00595 u1=2.02462 u2=0.984742 u3=0 Iion=-1.36252
DEBUG cell=0 t=0.0123353→0.0124755 step=0.00126157 V=1.00595 u1=2.02483 u2=0.984606 u3=0 Iion=-1.36248
PIMPLE: iteration 1
DICPCG:  Solving for Vm, Initial residual = 3.46128e-05, Final residual = 5.74621e-25, No Iterations 3
PIMPLE: iteration 2
DICPCG:  Solving for Vm, Initial residual = 5.20262e-17, Final residual = 5.20262e-17, No Iterations 0
ExecutionTime = 0.02 s  ClockTime = 0 s

Time = 0.0126157

DEBUG cell=0 t=0.0124755→0.0126157 step=0.000140174 V=1.00602 u1=2.02483 u2=0.984606 u3=0 Iion=-1.36248
DEBUG cell=0 t=0.0124755→0.0126157 step=0.00126157 V=1.00602 u1=2.02504 u2=0.984469 u3=0 Iion=-1.36243
PIMPLE: iteration 1
DICPCG:  Solving for Vm, Initial residual = 3.4608e-05, Final residual = 5.3811e-25, No Iterations 3
PIMPLE: iteration 2
DICPCG:  Solving for Vm, Initial residual = 4.25425e-17, Final residual = 4.25425e-17, No Iterations 0
ExecutionTime = 0.02 s  ClockTime = 0 s

Time = 0.0127558

DEBUG cell=0 t=0.0126157→0.0127558 step=0.000140174 V=1.00609 u1=2.02504 u2=0.984469 u3=0 Iion=-1.36243
DEBUG cell=0 t=0.0126157→0.0127558 step=0.00126157 V=1.00609 u1=2.02525 u2=0.984333 u3=0 Iion=-1.36239
PIMPLE: iteration 1
DICPCG:  Solving for Vm, Initial residual = 3.46032e-05, Final residual = 5.24314e-25, No Iterations 3
PIMPLE: iteration 2
DICPCG:  Solving for Vm, Initial residual = 5.43129e-17, Final residual = 5.43129e-17, No Iterations 0
ExecutionTime = 0.02 s  ClockTime = 0 s

Time = 0.012896

DEBUG cell=0 t=0.0127558→0.012896 step=0.000140174 V=1.00616 u1=2.02525 u2=0.984333 u3=0 Iion=-1.36239
DEBUG cell=0 t=0.0127558→0.012896 step=0.00126157 V=1.00616 u1=2.02546 u2=0.984197 u3=0 Iion=-1.36235
PIMPLE: iteration 1
DICPCG:  Solving for Vm, Initial residual = 3.45984e-05, Final residual = 4.25396e-25, No Iterations 3
PIMPLE: iteration 2
DICPCG:  Solving for Vm, Initial residual = 4.28739e-17, Final residual = 4.28739e-17, No Iterations 0
ExecutionTime = 0.02 s  ClockTime = 0 s

Time = 0.0130362

DEBUG cell=0 t=0.012896→0.0130362 step=0.000140174 V=1.00623 u1=2.02546 u2=0.984197 u3=0 Iion=-1.36235
DEBUG cell=0 t=0.012896→0.0130362 step=0.00126157 V=1.00623 u1=2.02567 u2=0.984061 u3=0 Iion=-1.3623
PIMPLE: iteration 1
DICPCG:  Solving for Vm, Initial residual = 3.45936e-05, Final residual = 8.78393e-25, No Iterations 3
PIMPLE: iteration 2
DICPCG:  Solving for Vm, Initial residual = 4.28372e-17, Final residual = 4.28372e-17, No Iterations 0
ExecutionTime = 0.02 s  ClockTime = 0 s

Time = 0.0131764

DEBUG cell=0 t=0.0130362→0.0131764 step=0.000140174 V=1.0063 u1=2.02567 u2=0.984061 u3=0 Iion=-1.3623
DEBUG cell=0 t=0.0130362→0.0131764 step=0.00126157 V=1.0063 u1=2.02588 u2=0.983925 u3=0 Iion=-1.36226
PIMPLE: iteration 1
DICPCG:  Solving for Vm, Initial residual = 3.45888e-05, Final residual = 5.87749e-25, No Iterations 3
PIMPLE: iteration 2
DICPCG:  Solving for Vm, Initial residual = 4.96135e-17, Final residual = 4.96135e-17, No Iterations 0
ExecutionTime = 0.02 s  ClockTime = 0 s

Time = 0.0133165

DEBUG cell=0 t=0.0131764→0.0133165 step=0.000140174 V=1.00637 u1=2.02588 u2=0.983925 u3=0 Iion=-1.36226
DEBUG cell=0 t=0.0131764→0.0133165 step=0.00126157 V=1.00637 u1=2.02609 u2=0.983788 u3=0 Iion=-1.36222
PIMPLE: iteration 1
DICPCG:  Solving for Vm, Initial residual = 3.4584e-05, Final residual = 5.78606e-25, No Iterations 3
PIMPLE: iteration 2
DICPCG:  Solving for Vm, Initial residual = 4.95426e-17, Final residual = 4.95426e-17, No Iterations 0
ExecutionTime = 0.02 s  ClockTime = 0 s

Time = 0.0134567

DEBUG cell=0 t=0.0133165→0.0134567 step=0.000140174 V=1.00644 u1=2.02609 u2=0.983788 u3=0 Iion=-1.36222
DEBUG cell=0 t=0.0133165→0.0134567 step=0.00126157 V=1.00644 u1=2.0263 u2=0.983652 u3=0 Iion=-1.36218
PIMPLE: iteration 1
DICPCG:  Solving for Vm, Initial residual = 3.45793e-05, Final residual = 4.79658e-25, No Iterations 3
PIMPLE: iteration 2
DICPCG:  Solving for Vm, Initial residual = 5.12928e-17, Final residual = 5.12928e-17, No Iterations 0
ExecutionTime = 0.02 s  ClockTime = 0 s

Time = 0.0135969

DEBUG cell=0 t=0.0134567→0.0135969 step=0.000140174 V=1.00651 u1=2.0263 u2=0.983652 u3=0 Iion=-1.36218
DEBUG cell=0 t=0.0134567→0.0135969 step=0.00126157 V=1.00651 u1=2.02651 u2=0.983516 u3=0 Iion=-1.36213
PIMPLE: iteration 1
DICPCG:  Solving for Vm, Initial residual = 3.45745e-05, Final residual = 3.98143e-25, No Iterations 3
PIMPLE: iteration 2
DICPCG:  Solving for Vm, Initial residual = 5.35148e-17, Final residual = 5.35148e-17, No Iterations 0
ExecutionTime = 0.02 s  ClockTime = 0 s

Time = 0.0137371

DEBUG cell=0 t=0.0135969→0.0137371 step=0.000140174 V=1.00658 u1=2.02651 u2=0.983516 u3=0 Iion=-1.36213
DEBUG cell=0 t=0.0135969→0.0137371 step=0.00126157 V=1.00658 u1=2.02672 u2=0.98338 u3=0 Iion=-1.36209
PIMPLE: iteration 1
DICPCG:  Solving for Vm, Initial residual = 3.45697e-05, Final residual = 6.84692e-25, No Iterations 3
PIMPLE: iteration 2
DICPCG:  Solving for Vm, Initial residual = 5.18926e-17, Final residual = 5.18926e-17, No Iterations 0
ExecutionTime = 0.02 s  ClockTime = 0 s

Time = 0.0138772

DEBUG cell=0 t=0.0137371→0.0138772 step=0.000140174 V=1.00665 u1=2.02672 u2=0.98338 u3=0 Iion=-1.36209
DEBUG cell=0 t=0.0137371→0.0138772 step=0.00126157 V=1.00665 u1=2.02694 u2=0.983244 u3=0 Iion=-1.36205
PIMPLE: iteration 1
DICPCG:  Solving for Vm, Initial residual = 3.45649e-05, Final residual = 6.14205e-25, No Iterations 3
PIMPLE: iteration 2
DICPCG:  Solving for Vm, Initial residual = 5.5227e-17, Final residual = 5.5227e-17, No Iterations 0
ExecutionTime = 0.02 s  ClockTime = 0 s

Time = 0.0140174

DEBUG cell=0 t=0.0138772→0.0140174 step=0.000140174 V=1.00672 u1=2.02694 u2=0.983244 u3=0 Iion=-1.36205
DEBUG cell=0 t=0.0138772→0.0140174 step=0.00126157 V=1.00672 u1=2.02715 u2=0.983108 u3=0 Iion=-1.362
PIMPLE: iteration 1
DICPCG:  Solving for Vm, Initial residual = 3.45601e-05, Final residual = 5.88608e-25, No Iterations 3
PIMPLE: iteration 2
DICPCG:  Solving for Vm, Initial residual = 5.87968e-17, Final residual = 5.87968e-17, No Iterations 0
ExecutionTime = 0.02 s  ClockTime = 0 s

Time = 0.0141576

DEBUG cell=0 t=0.0140174→0.0141576 step=0.000140174 V=1.00679 u1=2.02715 u2=0.983108 u3=0 Iion=-1.362
DEBUG cell=0 t=0.0140174→0.0141576 step=0.00126157 V=1.00679 u1=2.02736 u2=0.982973 u3=0 Iion=-1.36196
PIMPLE: iteration 1
DICPCG:  Solving for Vm, Initial residual = 3.45554e-05, Final residual = 7.27095e-25, No Iterations 3
PIMPLE: iteration 2
DICPCG:  Solving for Vm, Initial residual = 4.14988e-17, Final residual = 4.14988e-17, No Iterations 0
ExecutionTime = 0.02 s  ClockTime = 0 s

Time = 0.0142977

DEBUG cell=0 t=0.0141576→0.0142977 step=0.000140174 V=1.00686 u1=2.02736 u2=0.982973 u3=0 Iion=-1.36196
DEBUG cell=0 t=0.0141576→0.0142977 step=0.00126157 V=1.00686 u1=2.02757 u2=0.982837 u3=0 Iion=-1.36192
PIMPLE: iteration 1
DICPCG:  Solving for Vm, Initial residual = 3.45506e-05, Final residual = 4.08236e-25, No Iterations 3
PIMPLE: iteration 2
DICPCG:  Solving for Vm, Initial residual = 3.69789e-17, Final residual = 3.69789e-17, No Iterations 0
ExecutionTime = 0.02 s  ClockTime = 0 s

Time = 0.0144379

DEBUG cell=0 t=0.0142977→0.0144379 step=0.000140174 V=1.00693 u1=2.02757 u2=0.982837 u3=0 Iion=-1.36192
DEBUG cell=0 t=0.0142977→0.0144379 step=0.00126157 V=1.00693 u1=2.02778 u2=0.982701 u3=0 Iion=-1.36187
PIMPLE: iteration 1
DICPCG:  Solving for Vm, Initial residual = 3.45458e-05, Final residual = 6.27465e-25, No Iterations 3
PIMPLE: iteration 2
DICPCG:  Solving for Vm, Initial residual = 3.96392e-17, Final residual = 3.96392e-17, No Iterations 0
ExecutionTime = 0.02 s  ClockTime = 0 s

Time = 0.0145781

DEBUG cell=0 t=0.0144379→0.0145781 step=0.000140174 V=1.007 u1=2.02778 u2=0.982701 u3=0 Iion=-1.36187
DEBUG cell=0 t=0.0144379→0.0145781 step=0.00126157 V=1.007 u1=2.02799 u2=0.982565 u3=0 Iion=-1.36183
PIMPLE: iteration 1
DICPCG:  Solving for Vm, Initial residual = 3.4541e-05, Final residual = 5.17727e-25, No Iterations 3
PIMPLE: iteration 2
DICPCG:  Solving for Vm, Initial residual = 5.50394e-17, Final residual = 5.50394e-17, No Iterations 0
ExecutionTime = 0.02 s  ClockTime = 0 s

Time = 0.0147183

DEBUG cell=0 t=0.0145781→0.0147183 step=0.000140174 V=1.00707 u1=2.02799 u2=0.982565 u3=0 Iion=-1.36183
DEBUG cell=0 t=0.0145781→0.0147183 step=0.00126157 V=1.00707 u1=2.0282 u2=0.982429 u3=0 Iion=-1.36179
PIMPLE: iteration 1
DICPCG:  Solving for Vm, Initial residual = 3.45363e-05, Final residual = 6.64938e-25, No Iterations 3
PIMPLE: iteration 2
DICPCG:  Solving for Vm, Initial residual = 3.84878e-17, Final residual = 3.84878e-17, No Iterations 0
ExecutionTime = 0.02 s  ClockTime = 0 s

Time = 0.0148584

DEBUG cell=0 t=0.0147183→0.0148584 step=0.000140174 V=1.00714 u1=2.0282 u2=0.982429 u3=0 Iion=-1.36179
DEBUG cell=0 t=0.0147183→0.0148584 step=0.00126157 V=1.00714 u1=2.02841 u2=0.982294 u3=0 Iion=-1.36174
PIMPLE: iteration 1
DICPCG:  Solving for Vm, Initial residual = 3.45315e-05, Final residual = 5.19947e-25, No Iterations 3
PIMPLE: iteration 2
DICPCG:  Solving for Vm, Initial residual = 4.13496e-17, Final residual = 4.13496e-17, No Iterations 0
ExecutionTime = 0.02 s  ClockTime = 0 s

Time = 0.0149986

DEBUG cell=0 t=0.0148584→0.0149986 step=0.000140174 V=1.00721 u1=2.02841 u2=0.982294 u3=0 Iion=-1.36174
DEBUG cell=0 t=0.0148584→0.0149986 step=0.00126157 V=1.00721 u1=2.02862 u2=0.982158 u3=0 Iion=-1.3617
PIMPLE: iteration 1
DICPCG:  Solving for Vm, Initial residual = 3.45267e-05, Final residual = 5.52961e-25, No Iterations 3
PIMPLE: iteration 2
DICPCG:  Solving for Vm, Initial residual = 4.35034e-17, Final residual = 4.35034e-17, No Iterations 0
ExecutionTime = 0.02 s  ClockTime = 0 s

Time = 0.0151388

DEBUG cell=0 t=0.0149986→0.0151388 step=0.000140174 V=1.00728 u1=2.02862 u2=0.982158 u3=0 Iion=-1.3617
DEBUG cell=0 t=0.0149986→0.0151388 step=0.00126157 V=1.00728 u1=2.02883 u2=0.982022 u3=0 Iion=-1.36166
PIMPLE: iteration 1
DICPCG:  Solving for Vm, Initial residual = 3.4522e-05, Final residual = 7.15851e-25, No Iterations 3
PIMPLE: iteration 2
DICPCG:  Solving for Vm, Initial residual = 5.29014e-17, Final residual = 5.29014e-17, No Iterations 0
ExecutionTime = 0.02 s  ClockTime = 0 s

Time = 0.015279

DEBUG cell=0 t=0.0151388→0.015279 step=0.000140174 V=1.00735 u1=2.02883 u2=0.982022 u3=0 Iion=-1.36166
DEBUG cell=0 t=0.0151388→0.015279 step=0.00126157 V=1.00735 u1=2.02904 u2=0.981887 u3=0 Iion=-1.36162
PIMPLE: iteration 1
DICPCG:  Solving for Vm, Initial residual = 3.45172e-05, Final residual = 6.4393e-25, No Iterations 3
PIMPLE: iteration 2
DICPCG:  Solving for Vm, Initial residual = 3.88815e-17, Final residual = 3.88815e-17, No Iterations 0
ExecutionTime = 0.02 s  ClockTime = 0 s

Time = 0.0154191

DEBUG cell=0 t=0.015279→0.0154191 step=0.000140174 V=1.00742 u1=2.02904 u2=0.981887 u3=0 Iion=-1.36162
DEBUG cell=0 t=0.015279→0.0154191 step=0.00126157 V=1.00742 u1=2.02925 u2=0.981751 u3=0 Iion=-1.36157
PIMPLE: iteration 1
DICPCG:  Solving for Vm, Initial residual = 3.45124e-05, Final residual = 4.22468e-25, No Iterations 3
PIMPLE: iteration 2
DICPCG:  Solving for Vm, Initial residual = 5.01988e-17, Final residual = 5.01988e-17, No Iterations 0
ExecutionTime = 0.02 s  ClockTime = 0 s

Time = 0.0155593

DEBUG cell=0 t=0.0154191→0.0155593 step=0.000140174 V=1.00749 u1=2.02925 u2=0.981751 u3=0 Iion=-1.36157
DEBUG cell=0 t=0.0154191→0.0155593 step=0.00126157 V=1.00749 u1=2.02946 u2=0.981616 u3=0 Iion=-1.36153
PIMPLE: iteration 1
DICPCG:  Solving for Vm, Initial residual = 3.45077e-05, Final residual = 4.69871e-25, No Iterations 3
PIMPLE: iteration 2
DICPCG:  Solving for Vm, Initial residual = 4.79719e-17, Final residual = 4.79719e-17, No Iterations 0
ExecutionTime = 0.02 s  ClockTime = 0 s

Time = 0.0156995

DEBUG cell=0 t=0.0155593→0.0156995 step=0.000140174 V=1.00756 u1=2.02946 u2=0.981616 u3=0 Iion=-1.36153
DEBUG cell=0 t=0.0155593→0.0156995 step=0.00126157 V=1.00756 u1=2.02967 u2=0.98148 u3=0 Iion=-1.36149
PIMPLE: iteration 1
DICPCG:  Solving for Vm, Initial residual = 3.45029e-05, Final residual = 7.29971e-25, No Iterations 3
PIMPLE: iteration 2
DICPCG:  Solving for Vm, Initial residual = 4.20736e-17, Final residual = 4.20736e-17, No Iterations 0
ExecutionTime = 0.02 s  ClockTime = 0 s

Time = 0.0158397

DEBUG cell=0 t=0.0156995→0.0158397 step=0.000140174 V=1.00763 u1=2.02967 u2=0.98148 u3=0 Iion=-1.36149
DEBUG cell=0 t=0.0156995→0.0158397 step=0.00126157 V=1.00763 u1=2.02988 u2=0.981345 u3=0 Iion=-1.36144
PIMPLE: iteration 1
DICPCG:  Solving for Vm, Initial residual = 3.44982e-05, Final residual = 4.3163e-25, No Iterations 3
PIMPLE: iteration 2
DICPCG:  Solving for Vm, Initial residual = 5.39947e-17, Final residual = 5.39947e-17, No Iterations 0
ExecutionTime = 0.02 s  ClockTime = 0 s

Time = 0.0159798

DEBUG cell=0 t=0.0158397→0.0159798 step=0.000140174 V=1.00769 u1=2.02988 u2=0.981345 u3=0 Iion=-1.36144
DEBUG cell=0 t=0.0158397→0.0159798 step=0.00126157 V=1.00769 u1=2.03009 u2=0.981209 u3=0 Iion=-1.3614
PIMPLE: iteration 1
DICPCG:  Solving for Vm, Initial residual = 3.44934e-05, Final residual = 6.46921e-25, No Iterations 3
PIMPLE: iteration 2
DICPCG:  Solving for Vm, Initial residual = 3.49274e-17, Final residual = 3.49274e-17, No Iterations 0
ExecutionTime = 0.02 s  ClockTime = 0 s

Time = 0.01612

DEBUG cell=0 t=0.0159798→0.01612 step=0.000140174 V=1.00776 u1=2.03009 u2=0.981209 u3=0 Iion=-1.3614
DEBUG cell=0 t=0.0159798→0.01612 step=0.00126157 V=1.00776 u1=2.03031 u2=0.981074 u3=0 Iion=-1.36136
PIMPLE: iteration 1
DICPCG:  Solving for Vm, Initial residual = 3.44886e-05, Final residual = 4.06822e-25, No Iterations 3
PIMPLE: iteration 2
DICPCG:  Solving for Vm, Initial residual = 4.56685e-17, Final residual = 4.56685e-17, No Iterations 0
ExecutionTime = 0.02 s  ClockTime = 0 s

Time = 0.0162602

DEBUG cell=0 t=0.01612→0.0162602 step=0.000140174 V=1.00783 u1=2.03031 u2=0.981074 u3=0 Iion=-1.36136
DEBUG cell=0 t=0.01612→0.0162602 step=0.00126157 V=1.00783 u1=2.03052 u2=0.980939 u3=0 Iion=-1.36131
PIMPLE: iteration 1
DICPCG:  Solving for Vm, Initial residual = 3.44839e-05, Final residual = 4.66412e-25, No Iterations 3
PIMPLE: iteration 2
DICPCG:  Solving for Vm, Initial residual = 4.83595e-17, Final residual = 4.83595e-17, No Iterations 0
ExecutionTime = 0.02 s  ClockTime = 0 s

Time = 0.0164004

DEBUG cell=0 t=0.0162602→0.0164004 step=0.000140174 V=1.0079 u1=2.03052 u2=0.980939 u3=0 Iion=-1.36131
DEBUG cell=0 t=0.0162602→0.0164004 step=0.00126157 V=1.0079 u1=2.03073 u2=0.980803 u3=0 Iion=-1.36127
PIMPLE: iteration 1
DICPCG:  Solving for Vm, Initial residual = 3.44791e-05, Final residual = 5.40225e-25, No Iterations 3
PIMPLE: iteration 2
DICPCG:  Solving for Vm, Initial residual = 5.57645e-17, Final residual = 5.57645e-17, No Iterations 0
ExecutionTime = 0.02 s  ClockTime = 0 s

Time = 0.0165405

DEBUG cell=0 t=0.0164004→0.0165405 step=0.000140174 V=1.00797 u1=2.03073 u2=0.980803 u3=0 Iion=-1.36127
DEBUG cell=0 t=0.0164004→0.0165405 step=0.00126157 V=1.00797 u1=2.03094 u2=0.980668 u3=0 Iion=-1.36123
PIMPLE: iteration 1
DICPCG:  Solving for Vm, Initial residual = 3.44744e-05, Final residual = 5.00053e-25, No Iterations 3
PIMPLE: iteration 2
DICPCG:  Solving for Vm, Initial residual = 5.04405e-17, Final residual = 5.04405e-17, No Iterations 0
ExecutionTime = 0.02 s  ClockTime = 0 s

Time = 0.0166807

DEBUG cell=0 t=0.0165405→0.0166807 step=0.000140174 V=1.00804 u1=2.03094 u2=0.980668 u3=0 Iion=-1.36123
DEBUG cell=0 t=0.0165405→0.0166807 step=0.00126157 V=1.00804 u1=2.03115 u2=0.980533 u3=0 Iion=-1.36119
PIMPLE: iteration 1
DICPCG:  Solving for Vm, Initial residual = 3.44696e-05, Final residual = 6.71158e-25, No Iterations 3
PIMPLE: iteration 2
DICPCG:  Solving for Vm, Initial residual = 5.0235e-17, Final residual = 5.0235e-17, No Iterations 0
ExecutionTime = 0.02 s  ClockTime = 0 s

Time = 0.0168209

DEBUG cell=0 t=0.0166807→0.0168209 step=0.000140174 V=1.00811 u1=2.03115 u2=0.980533 u3=0 Iion=-1.36119
DEBUG cell=0 t=0.0166807→0.0168209 step=0.00126157 V=1.00811 u1=2.03136 u2=0.980398 u3=0 Iion=-1.36114
PIMPLE: iteration 1
DICPCG:  Solving for Vm, Initial residual = 3.44649e-05, Final residual = 5.11469e-25, No Iterations 3
PIMPLE: iteration 2
DICPCG:  Solving for Vm, Initial residual = 4.58548e-17, Final residual = 4.58548e-17, No Iterations 0
ExecutionTime = 0.02 s  ClockTime = 0 s

Time = 0.0169611

DEBUG cell=0 t=0.0168209→0.0169611 step=0.000140174 V=1.00818 u1=2.03136 u2=0.980398 u3=0 Iion=-1.36114
DEBUG cell=0 t=0.0168209→0.0169611 step=0.00126157 V=1.00818 u1=2.03157 u2=0.980263 u3=0 Iion=-1.3611
PIMPLE: iteration 1
DICPCG:  Solving for Vm, Initial residual = 3.44601e-05, Final residual = 1.00019e-24, No Iterations 3
PIMPLE: iteration 2
DICPCG:  Solving for Vm, Initial residual = 5.37629e-17, Final residual = 5.37629e-17, No Iterations 0
ExecutionTime = 0.02 s  ClockTime = 0 s

Time = 0.0171012

DEBUG cell=0 t=0.0169611→0.0171012 step=0.000140174 V=1.00825 u1=2.03157 u2=0.980263 u3=0 Iion=-1.3611
DEBUG cell=0 t=0.0169611→0.0171012 step=0.00126157 V=1.00825 u1=2.03178 u2=0.980128 u3=0 Iion=-1.36106
PIMPLE: iteration 1
DICPCG:  Solving for Vm, Initial residual = 3.44554e-05, Final residual = 5.04011e-25, No Iterations 3
PIMPLE: iteration 2
DICPCG:  Solving for Vm, Initial residual = 4.74306e-17, Final residual = 4.74306e-17, No Iterations 0
ExecutionTime = 0.02 s  ClockTime = 0 s

Time = 0.0172414

DEBUG cell=0 t=0.0171012→0.0172414 step=0.000140174 V=1.00832 u1=2.03178 u2=0.980128 u3=0 Iion=-1.36106
DEBUG cell=0 t=0.0171012→0.0172414 step=0.00126157 V=1.00832 u1=2.03199 u2=0.979993 u3=0 Iion=-1.36101
PIMPLE: iteration 1
DICPCG:  Solving for Vm, Initial residual = 3.44506e-05, Final residual = 6.43894e-25, No Iterations 3
PIMPLE: iteration 2
DICPCG:  Solving for Vm, Initial residual = 4.81342e-17, Final residual = 4.81342e-17, No Iterations 0
ExecutionTime = 0.02 s  ClockTime = 0 s

Time = 0.0173816

DEBUG cell=0 t=0.0172414→0.0173816 step=0.000140174 V=1.00839 u1=2.03199 u2=0.979993 u3=0 Iion=-1.36101
DEBUG cell=0 t=0.0172414→0.0173816 step=0.00126157 V=1.00839 u1=2.0322 u2=0.979858 u3=0 Iion=-1.36097
PIMPLE: iteration 1
DICPCG:  Solving for Vm, Initial residual = 3.44459e-05, Final residual = 8.07059e-25, No Iterations 3
PIMPLE: iteration 2
DICPCG:  Solving for Vm, Initial residual = 4.28466e-17, Final residual = 4.28466e-17, No Iterations 0
ExecutionTime = 0.02 s  ClockTime = 0 s

Time = 0.0175217

DEBUG cell=0 t=0.0173816→0.0175217 step=0.000140174 V=1.00846 u1=2.0322 u2=0.979858 u3=0 Iion=-1.36097
DEBUG cell=0 t=0.0173816→0.0175217 step=0.00126157 V=1.00846 u1=2.03241 u2=0.979723 u3=0 Iion=-1.36093
PIMPLE: iteration 1
DICPCG:  Solving for Vm, Initial residual = 3.44411e-05, Final residual = 7.04506e-25, No Iterations 3
PIMPLE: iteration 2
DICPCG:  Solving for Vm, Initial residual = 4.83295e-17, Final residual = 4.83295e-17, No Iterations 0
ExecutionTime = 0.02 s  ClockTime = 0 s

Time = 0.0176619

DEBUG cell=0 t=0.0175217→0.0176619 step=0.000140174 V=1.00853 u1=2.03241 u2=0.979723 u3=0 Iion=-1.36093
DEBUG cell=0 t=0.0175217→0.0176619 step=0.00126157 V=1.00853 u1=2.03262 u2=0.979588 u3=0 Iion=-1.36089
PIMPLE: iteration 1
DICPCG:  Solving for Vm, Initial residual = 3.44364e-05, Final residual = 6.57472e-25, No Iterations 3
PIMPLE: iteration 2
DICPCG:  Solving for Vm, Initial residual = 4.03167e-17, Final residual = 4.03167e-17, No Iterations 0
ExecutionTime = 0.02 s  ClockTime = 0 s

Time = 0.0178021

DEBUG cell=0 t=0.0176619→0.0178021 step=0.000140174 V=1.0086 u1=2.03262 u2=0.979588 u3=0 Iion=-1.36089
DEBUG cell=0 t=0.0176619→0.0178021 step=0.00126157 V=1.0086 u1=2.03283 u2=0.979453 u3=0 Iion=-1.36084
PIMPLE: iteration 1
DICPCG:  Solving for Vm, Initial residual = 3.44316e-05, Final residual = 5.04791e-25, No Iterations 3
PIMPLE: iteration 2
DICPCG:  Solving for Vm, Initial residual = 5.22264e-17, Final residual = 5.22264e-17, No Iterations 0
ExecutionTime = 0.02 s  ClockTime = 0 s

Time = 0.0179423

DEBUG cell=0 t=0.0178021→0.0179423 step=0.000140174 V=1.00867 u1=2.03283 u2=0.979453 u3=0 Iion=-1.36084
DEBUG cell=0 t=0.0178021→0.0179423 step=0.00126157 V=1.00867 u1=2.03304 u2=0.979318 u3=0 Iion=-1.3608
PIMPLE: iteration 1
DICPCG:  Solving for Vm, Initial residual = 3.44269e-05, Final residual = 4.66967e-25, No Iterations 3
PIMPLE: iteration 2
DICPCG:  Solving for Vm, Initial residual = 4.35078e-17, Final residual = 4.35078e-17, No Iterations 0
ExecutionTime = 0.02 s  ClockTime = 0 s

Time = 0.0180824

DEBUG cell=0 t=0.0179423→0.0180824 step=0.000140174 V=1.00874 u1=2.03304 u2=0.979318 u3=0 Iion=-1.3608
DEBUG cell=0 t=0.0179423→0.0180824 step=0.00126157 V=1.00874 u1=2.03325 u2=0.979183 u3=0 Iion=-1.36076
PIMPLE: iteration 1
DICPCG:  Solving for Vm, Initial residual = 3.44222e-05, Final residual = 6.70358e-25, No Iterations 3
PIMPLE: iteration 2
DICPCG:  Solving for Vm, Initial residual = 4.73068e-17, Final residual = 4.73068e-17, No Iterations 0
ExecutionTime = 0.02 s  ClockTime = 0 s

Time = 0.0182226

DEBUG cell=0 t=0.0180824→0.0182226 step=0.000140174 V=1.00881 u1=2.03325 u2=0.979183 u3=0 Iion=-1.36076
DEBUG cell=0 t=0.0180824→0.0182226 step=0.00126157 V=1.00881 u1=2.03346 u2=0.979048 u3=0 Iion=-1.36071
PIMPLE: iteration 1
DICPCG:  Solving for Vm, Initial residual = 3.44174e-05, Final residual = 5.32444e-25, No Iterations 3
PIMPLE: iteration 2
DICPCG:  Solving for Vm, Initial residual = 4.65297e-17, Final residual = 4.65297e-17, No Iterations 0
ExecutionTime = 0.02 s  ClockTime = 0 s

Time = 0.0183628

DEBUG cell=0 t=0.0182226→0.0183628 step=0.000140174 V=1.00888 u1=2.03346 u2=0.979048 u3=0 Iion=-1.36071
DEBUG cell=0 t=0.0182226→0.0183628 step=0.00126157 V=1.00888 u1=2.03367 u2=0.978913 u3=0 Iion=-1.36067
PIMPLE: iteration 1
DICPCG:  Solving for Vm, Initial residual = 3.44127e-05, Final residual = 6.9336e-25, No Iterations 3
PIMPLE: iteration 2
DICPCG:  Solving for Vm, Initial residual = 3.55257e-17, Final residual = 3.55257e-17, No Iterations 0
ExecutionTime = 0.03 s  ClockTime = 0 s

Time = 0.018503

DEBUG cell=0 t=0.0183628→0.018503 step=0.000140174 V=1.00895 u1=2.03367 u2=0.978913 u3=0 Iion=-1.36067
DEBUG cell=0 t=0.0183628→0.018503 step=0.00126157 V=1.00895 u1=2.03388 u2=0.978779 u3=0 Iion=-1.36063
PIMPLE: iteration 1
DICPCG:  Solving for Vm, Initial residual = 3.44079e-05, Final residual = 4.3749e-25, No Iterations 3
PIMPLE: iteration 2
DICPCG:  Solving for Vm, Initial residual = 3.98291e-17, Final residual = 3.98291e-17, No Iterations 0
ExecutionTime = 0.03 s  ClockTime = 0 s

Time = 0.0186431

DEBUG cell=0 t=0.018503→0.0186431 step=0.000140174 V=1.00901 u1=2.03388 u2=0.978779 u3=0 Iion=-1.36063
DEBUG cell=0 t=0.018503→0.0186431 step=0.00126157 V=1.00901 u1=2.03409 u2=0.978644 u3=0 Iion=-1.36059
PIMPLE: iteration 1
DICPCG:  Solving for Vm, Initial residual = 3.44032e-05, Final residual = 4.32645e-25, No Iterations 3
PIMPLE: iteration 2
DICPCG:  Solving for Vm, Initial residual = 5.16666e-17, Final residual = 5.16666e-17, No Iterations 0
ExecutionTime = 0.03 s  ClockTime = 0 s

Time = 0.0187833

DEBUG cell=0 t=0.0186431→0.0187833 step=0.000140174 V=1.00908 u1=2.03409 u2=0.978644 u3=0 Iion=-1.36059
DEBUG cell=0 t=0.0186431→0.0187833 step=0.00126157 V=1.00908 u1=2.03431 u2=0.978509 u3=0 Iion=-1.36054
PIMPLE: iteration 1
DICPCG:  Solving for Vm, Initial residual = 3.43985e-05, Final residual = 5.70369e-25, No Iterations 3
PIMPLE: iteration 2
DICPCG:  Solving for Vm, Initial residual = 4.87368e-17, Final residual = 4.87368e-17, No Iterations 0
ExecutionTime = 0.03 s  ClockTime = 0 s

Time = 0.0189235

DEBUG cell=0 t=0.0187833→0.0189235 step=0.000140174 V=1.00915 u1=2.03431 u2=0.978509 u3=0 Iion=-1.36054
DEBUG cell=0 t=0.0187833→0.0189235 step=0.00126157 V=1.00915 u1=2.03452 u2=0.978375 u3=0 Iion=-1.3605
PIMPLE: iteration 1
DICPCG:  Solving for Vm, Initial residual = 3.43937e-05, Final residual = 5.6145e-25, No Iterations 3
PIMPLE: iteration 2
DICPCG:  Solving for Vm, Initial residual = 3.98545e-17, Final residual = 3.98545e-17, No Iterations 0
ExecutionTime = 0.03 s  ClockTime = 0 s

Time = 0.0190637

DEBUG cell=0 t=0.0189235→0.0190637 step=0.000140174 V=1.00922 u1=2.03452 u2=0.978375 u3=0 Iion=-1.3605
DEBUG cell=0 t=0.0189235→0.0190637 step=0.00126157 V=1.00922 u1=2.03473 u2=0.97824 u3=0 Iion=-1.36046
PIMPLE: iteration 1
DICPCG:  Solving for Vm, Initial residual = 3.4389e-05, Final residual = 8.78673e-25, No Iterations 3
PIMPLE: iteration 2
DICPCG:  Solving for Vm, Initial residual = 4.43582e-17, Final residual = 4.43582e-17, No Iterations 0
ExecutionTime = 0.03 s  ClockTime = 0 s

Time = 0.0192038

DEBUG cell=0 t=0.0190637→0.0192038 step=0.000140174 V=1.00929 u1=2.03473 u2=0.97824 u3=0 Iion=-1.36046
DEBUG cell=0 t=0.0190637→0.0192038 step=0.00126157 V=1.00929 u1=2.03494 u2=0.978106 u3=0 Iion=-1.36042
PIMPLE: iteration 1
DICPCG:  Solving for Vm, Initial residual = 3.43843e-05, Final residual = 4.11633e-25, No Iterations 3
PIMPLE: iteration 2
DICPCG:  Solving for Vm, Initial residual = 4.65746e-17, Final residual = 4.65746e-17, No Iterations 0
ExecutionTime = 0.03 s  ClockTime = 0 s

Time = 0.019344

DEBUG cell=0 t=0.0192038→0.019344 step=0.000140174 V=1.00936 u1=2.03494 u2=0.978106 u3=0 Iion=-1.36042
DEBUG cell=0 t=0.0192038→0.019344 step=0.00126157 V=1.00936 u1=2.03515 u2=0.977971 u3=0 Iion=-1.36037
PIMPLE: iteration 1
DICPCG:  Solving for Vm, Initial residual = 3.43796e-05, Final residual = 3.25998e-25, No Iterations 3
PIMPLE: iteration 2
DICPCG:  Solving for Vm, Initial residual = 4.35115e-17, Final residual = 4.35115e-17, No Iterations 0
ExecutionTime = 0.03 s  ClockTime = 1 s

Time = 0.0194842

DEBUG cell=0 t=0.019344→0.0194842 step=0.000140174 V=1.00943 u1=2.03515 u2=0.977971 u3=0 Iion=-1.36037
DEBUG cell=0 t=0.019344→0.0194842 step=0.00126157 V=1.00943 u1=2.03536 u2=0.977837 u3=0 Iion=-1.36033
PIMPLE: iteration 1
DICPCG:  Solving for Vm, Initial residual = 3.43748e-05, Final residual = 5.87501e-25, No Iterations 3
PIMPLE: iteration 2
DICPCG:  Solving for Vm, Initial residual = 3.99444e-17, Final residual = 3.99444e-17, No Iterations 0
ExecutionTime = 0.03 s  ClockTime = 1 s

Time = 0.0196244

DEBUG cell=0 t=0.0194842→0.0196244 step=0.000140174 V=1.0095 u1=2.03536 u2=0.977837 u3=0 Iion=-1.36033
DEBUG cell=0 t=0.0194842→0.0196244 step=0.00126157 V=1.0095 u1=2.03557 u2=0.977702 u3=0 Iion=-1.36029
PIMPLE: iteration 1
DICPCG:  Solving for Vm, Initial residual = 3.43701e-05, Final residual = 5.34279e-25, No Iterations 3
PIMPLE: iteration 2
DICPCG:  Solving for Vm, Initial residual = 4.71366e-17, Final residual = 4.71366e-17, No Iterations 0
ExecutionTime = 0.03 s  ClockTime = 1 s

Time = 0.0197645

DEBUG cell=0 t=0.0196244→0.0197645 step=0.000140174 V=1.00957 u1=2.03557 u2=0.977702 u3=0 Iion=-1.36029
DEBUG cell=0 t=0.0196244→0.0197645 step=0.00126157 V=1.00957 u1=2.03578 u2=0.977568 u3=0 Iion=-1.36025
PIMPLE: iteration 1
DICPCG:  Solving for Vm, Initial residual = 3.43654e-05, Final residual = 4.89846e-25, No Iterations 3
PIMPLE: iteration 2
DICPCG:  Solving for Vm, Initial residual = 4.45447e-17, Final residual = 4.45447e-17, No Iterations 0
ExecutionTime = 0.03 s  ClockTime = 1 s

Time = 0.0199047

DEBUG cell=0 t=0.0197645→0.0199047 step=0.000140174 V=1.00964 u1=2.03578 u2=0.977568 u3=0 Iion=-1.36025
DEBUG cell=0 t=0.0197645→0.0199047 step=0.00126157 V=1.00964 u1=2.03599 u2=0.977433 u3=0 Iion=-1.3602
PIMPLE: iteration 1
DICPCG:  Solving for Vm, Initial residual = 3.43607e-05, Final residual = 6.5889e-25, No Iterations 3
PIMPLE: iteration 2
DICPCG:  Solving for Vm, Initial residual = 4.84411e-17, Final residual = 4.84411e-17, No Iterations 0
ExecutionTime = 0.03 s  ClockTime = 1 s

Time = 0.0200449

DEBUG cell=0 t=0.0199047→0.0200449 step=0.000140174 V=1.00971 u1=2.03599 u2=0.977433 u3=0 Iion=-1.3602
DEBUG cell=0 t=0.0199047→0.0200449 step=0.00126157 V=1.00971 u1=2.0362 u2=0.977299 u3=0 Iion=-1.36016
PIMPLE: iteration 1
DICPCG:  Solving for Vm, Initial residual = 3.43559e-05, Final residual = 4.60784e-25, No Iterations 3
PIMPLE: iteration 2
DICPCG:  Solving for Vm, Initial residual = 6.16817e-17, Final residual = 6.16817e-17, No Iterations 0
ExecutionTime = 0.03 s  ClockTime = 1 s

Time = 0.0201851

DEBUG cell=0 t=0.0200449→0.0201851 step=0.000140174 V=1.00978 u1=2.0362 u2=0.977299 u3=0 Iion=-1.36016
DEBUG cell=0 t=0.0200449→0.0201851 step=0.00126157 V=1.00978 u1=2.03641 u2=0.977165 u3=0 Iion=-1.36012
PIMPLE: iteration 1
DICPCG:  Solving for Vm, Initial residual = 3.43512e-05, Final residual = 6.74887e-25, No Iterations 3
PIMPLE: iteration 2
DICPCG:  Solving for Vm, Initial residual = 5.02831e-17, Final residual = 5.02831e-17, No Iterations 0
ExecutionTime = 0.03 s  ClockTime = 1 s

Time = 0.0203252

DEBUG cell=0 t=0.0201851→0.0203252 step=0.000140174 V=1.00985 u1=2.03641 u2=0.977165 u3=0 Iion=-1.36012
DEBUG cell=0 t=0.0201851→0.0203252 step=0.00126157 V=1.00985 u1=2.03662 u2=0.977031 u3=0 Iion=-1.36008
PIMPLE: iteration 1
DICPCG:  Solving for Vm, Initial residual = 3.43465e-05, Final residual = 3.97094e-25, No Iterations 3
PIMPLE: iteration 2
DICPCG:  Solving for Vm, Initial residual = 5.45816e-17, Final residual = 5.45816e-17, No Iterations 0
ExecutionTime = 0.03 s  ClockTime = 1 s

Time = 0.0204654

DEBUG cell=0 t=0.0203252→0.0204654 step=0.000140174 V=1.00992 u1=2.03662 u2=0.977031 u3=0 Iion=-1.36008
DEBUG cell=0 t=0.0203252→0.0204654 step=0.00126157 V=1.00992 u1=2.03683 u2=0.976896 u3=0 Iion=-1.36003
PIMPLE: iteration 1
DICPCG:  Solving for Vm, Initial residual = 3.43418e-05, Final residual = 5.39413e-25, No Iterations 3
PIMPLE: iteration 2
DICPCG:  Solving for Vm, Initial residual = 4.8495e-17, Final residual = 4.8495e-17, No Iterations 0
ExecutionTime = 0.03 s  ClockTime = 1 s

Time = 0.0206056

DEBUG cell=0 t=0.0204654→0.0206056 step=0.000140174 V=1.00999 u1=2.03683 u2=0.976896 u3=0 Iion=-1.36003
DEBUG cell=0 t=0.0204654→0.0206056 step=0.00126157 V=1.00999 u1=2.03704 u2=0.976762 u3=0 Iion=-1.35999
PIMPLE: iteration 1
DICPCG:  Solving for Vm, Initial residual = 3.43371e-05, Final residual = 5.08619e-25, No Iterations 3
PIMPLE: iteration 2
DICPCG:  Solving for Vm, Initial residual = 5.76658e-17, Final residual = 5.76658e-17, No Iterations 0
ExecutionTime = 0.03 s  ClockTime = 1 s

Time = 0.0207458

DEBUG cell=0 t=0.0206056→0.0207458 step=0.000140174 V=1.01006 u1=2.03704 u2=0.976762 u3=0 Iion=-1.35999
DEBUG cell=0 t=0.0206056→0.0207458 step=0.00126157 V=1.01006 u1=2.03725 u2=0.976628 u3=0 Iion=-1.35995
PIMPLE: iteration 1
DICPCG:  Solving for Vm, Initial residual = 3.43323e-05, Final residual = 5.62315e-25, No Iterations 3
PIMPLE: iteration 2
DICPCG:  Solving for Vm, Initial residual = 5.5108e-17, Final residual = 5.5108e-17, No Iterations 0
ExecutionTime = 0.03 s  ClockTime = 1 s

Time = 0.0208859

DEBUG cell=0 t=0.0207458→0.0208859 step=0.000140174 V=1.01013 u1=2.03725 u2=0.976628 u3=0 Iion=-1.35995
DEBUG cell=0 t=0.0207458→0.0208859 step=0.00126157 V=1.01013 u1=2.03746 u2=0.976494 u3=0 Iion=-1.35991
PIMPLE: iteration 1
DICPCG:  Solving for Vm, Initial residual = 3.43276e-05, Final residual = 7.19347e-25, No Iterations 3
PIMPLE: iteration 2
DICPCG:  Solving for Vm, Initial residual = 4.23026e-17, Final residual = 4.23026e-17, No Iterations 0
ExecutionTime = 0.03 s  ClockTime = 1 s

Time = 0.0210261

DEBUG cell=0 t=0.0208859→0.0210261 step=0.000140174 V=1.01019 u1=2.03746 u2=0.976494 u3=0 Iion=-1.35991
DEBUG cell=0 t=0.0208859→0.0210261 step=0.00126157 V=1.01019 u1=2.03767 u2=0.97636 u3=0 Iion=-1.35986
PIMPLE: iteration 1
DICPCG:  Solving for Vm, Initial residual = 3.43229e-05, Final residual = 3.47297e-25, No Iterations 3
PIMPLE: iteration 2
DICPCG:  Solving for Vm, Initial residual = 5.53357e-17, Final residual = 5.53357e-17, No Iterations 0
ExecutionTime = 0.03 s  ClockTime = 1 s

Time = 0.0211663

DEBUG cell=0 t=0.0210261→0.0211663 step=0.000140174 V=1.01026 u1=2.03767 u2=0.97636 u3=0 Iion=-1.35986
DEBUG cell=0 t=0.0210261→0.0211663 step=0.00126157 V=1.01026 u1=2.03788 u2=0.976226 u3=0 Iion=-1.35982
PIMPLE: iteration 1
[...]
ExecutionTime = 0.22 s  ClockTime = 1 s

Time = 0.194842

DEBUG cell=0 t=0.194702→0.194842 step=0.000140174 V=1.09282 u1=2.29499 u2=0.834421 u3=0 Iion=-1.31539
DEBUG cell=0 t=0.194702→0.194842 step=0.00126157 V=1.09282 u1=2.2952 u2=0.834323 u3=0 Iion=-1.31536
PIMPLE: iteration 1
DICPCG:  Solving for Vm, Initial residual = 2.93301e-05, Final residual = 6.61132e-25, No Iterations 3
PIMPLE: iteration 2
DICPCG:  Solving for Vm, Initial residual = 4.38541e-17, Final residual = 4.38541e-17, No Iterations 0
ExecutionTime = 0.22 s  ClockTime = 1 s

Time = 0.194982

DEBUG cell=0 t=0.194842→0.194982 step=0.000140174 V=1.09288 u1=2.2952 u2=0.834323 u3=0 Iion=-1.31536
DEBUG cell=0 t=0.194842→0.194982 step=0.00126157 V=1.09288 u1=2.2954 u2=0.834225 u3=0 Iion=-1.31533
PIMPLE: iteration 1
DICPCG:  Solving for Vm, Initial residual = 2.93266e-05, Final residual = 4.40486e-25, No Iterations 3
PIMPLE: iteration 2
DICPCG:  Solving for Vm, Initial residual = 6.3945e-17, Final residual = 6.3945e-17, No Iterations 0
ExecutionTime = 0.22 s  ClockTime = 1 s

Time = 0.195122

DEBUG cell=0 t=0.194982→0.195122 step=0.000140174 V=1.09294 u1=2.2954 u2=0.834225 u3=0 Iion=-1.31533
DEBUG cell=0 t=0.194982→0.195122 step=0.00126157 V=1.09294 u1=2.29561 u2=0.834127 u3=0 Iion=-1.3153
PIMPLE: iteration 1
DICPCG:  Solving for Vm, Initial residual = 2.93232e-05, Final residual = 3.24101e-25, No Iterations 3
PIMPLE: iteration 2
DICPCG:  Solving for Vm, Initial residual = 5.90346e-17, Final residual = 5.90346e-17, No Iterations 0
ExecutionTime = 0.22 s  ClockTime = 1 s

Time = 0.195262

DEBUG cell=0 t=0.195122→0.195262 step=0.000140174 V=1.09301 u1=2.29561 u2=0.834127 u3=0 Iion=-1.3153
DEBUG cell=0 t=0.195122→0.195262 step=0.00126157 V=1.09301 u1=2.29582 u2=0.83403 u3=0 Iion=-1.31527
PIMPLE: iteration 1
DICPCG:  Solving for Vm, Initial residual = 2.93198e-05, Final residual = 3.09039e-25, No Iterations 3
PIMPLE: iteration 2
DICPCG:  Solving for Vm, Initial residual = 5.01812e-17, Final residual = 5.01812e-17, No Iterations 0
ExecutionTime = 0.22 s  ClockTime = 1 s

Time = 0.195403

DEBUG cell=0 t=0.195262→0.195403 step=0.000140174 V=1.09307 u1=2.29582 u2=0.83403 u3=0 Iion=-1.31527
DEBUG cell=0 t=0.195262→0.195403 step=0.00126157 V=1.09307 u1=2.29602 u2=0.833932 u3=0 Iion=-1.31524
PIMPLE: iteration 1
DICPCG:  Solving for Vm, Initial residual = 2.93163e-05, Final residual = 5.66768e-25, No Iterations 3
PIMPLE: iteration 2
DICPCG:  Solving for Vm, Initial residual = 5.79099e-17, Final residual = 5.79099e-17, No Iterations 0
ExecutionTime = 0.22 s  ClockTime = 1 s

Time = 0.195543

DEBUG cell=0 t=0.195403→0.195543 step=0.000140174 V=1.09314 u1=2.29602 u2=0.833932 u3=0 Iion=-1.31524
DEBUG cell=0 t=0.195403→0.195543 step=0.00126157 V=1.09314 u1=2.29623 u2=0.833834 u3=0 Iion=-1.31521
PIMPLE: iteration 1
DICPCG:  Solving for Vm, Initial residual = 2.93129e-05, Final residual = 4.31048e-25, No Iterations 3
PIMPLE: iteration 2
DICPCG:  Solving for Vm, Initial residual = 6.40852e-17, Final residual = 6.40852e-17, No Iterations 0
ExecutionTime = 0.22 s  ClockTime = 1 s

Time = 0.195683

DEBUG cell=0 t=0.195543→0.195683 step=0.000140174 V=1.0932 u1=2.29623 u2=0.833834 u3=0 Iion=-1.31521
DEBUG cell=0 t=0.195543→0.195683 step=0.00126157 V=1.0932 u1=2.29643 u2=0.833736 u3=0 Iion=-1.31518
PIMPLE: iteration 1
DICPCG:  Solving for Vm, Initial residual = 2.93094e-05, Final residual = 4.20681e-25, No Iterations 3
PIMPLE: iteration 2
DICPCG:  Solving for Vm, Initial residual = 5.25319e-17, Final residual = 5.25319e-17, No Iterations 0
ExecutionTime = 0.22 s  ClockTime = 1 s

Time = 0.195823

DEBUG cell=0 t=0.195683→0.195823 step=0.000140174 V=1.09326 u1=2.29643 u2=0.833736 u3=0 Iion=-1.31518
DEBUG cell=0 t=0.195683→0.195823 step=0.00126157 V=1.09326 u1=2.29664 u2=0.833639 u3=0 Iion=-1.31515
PIMPLE: iteration 1
DICPCG:  Solving for Vm, Initial residual = 2.9306e-05, Final residual = 3.78609e-25, No Iterations 3
PIMPLE: iteration 2
DICPCG:  Solving for Vm, Initial residual = 4.11352e-17, Final residual = 4.11352e-17, No Iterations 0
ExecutionTime = 0.22 s  ClockTime = 1 s

Time = 0.195963

DEBUG cell=0 t=0.195823→0.195963 step=0.000140174 V=1.09333 u1=2.29664 u2=0.833639 u3=0 Iion=-1.31515
DEBUG cell=0 t=0.195823→0.195963 step=0.00126157 V=1.09333 u1=2.29684 u2=0.833541 u3=0 Iion=-1.31512
PIMPLE: iteration 1
DICPCG:  Solving for Vm, Initial residual = 2.93026e-05, Final residual = 4.35538e-25, No Iterations 3
PIMPLE: iteration 2
DICPCG:  Solving for Vm, Initial residual = 4.99181e-17, Final residual = 4.99181e-17, No Iterations 0
ExecutionTime = 0.22 s  ClockTime = 1 s

Time = 0.196103

DEBUG cell=0 t=0.195963→0.196103 step=0.000140174 V=1.09339 u1=2.29684 u2=0.833541 u3=0 Iion=-1.31512
DEBUG cell=0 t=0.195963→0.196103 step=0.00126157 V=1.09339 u1=2.29705 u2=0.833443 u3=0 Iion=-1.31509
PIMPLE: iteration 1
DICPCG:  Solving for Vm, Initial residual = 2.92991e-05, Final residual = 3.66262e-25, No Iterations 3
PIMPLE: iteration 2
DICPCG:  Solving for Vm, Initial residual = 5.16846e-17, Final residual = 5.16846e-17, No Iterations 0
ExecutionTime = 0.22 s  ClockTime = 1 s

Time = 0.196244

DEBUG cell=0 t=0.196103→0.196244 step=0.000140174 V=1.09346 u1=2.29705 u2=0.833443 u3=0 Iion=-1.31509
DEBUG cell=0 t=0.196103→0.196244 step=0.00126157 V=1.09346 u1=2.29725 u2=0.833346 u3=0 Iion=-1.31506
PIMPLE: iteration 1
DICPCG:  Solving for Vm, Initial residual = 2.92957e-05, Final residual = 4.20223e-25, No Iterations 3
PIMPLE: iteration 2
DICPCG:  Solving for Vm, Initial residual = 5.39164e-17, Final residual = 5.39164e-17, No Iterations 0
ExecutionTime = 0.22 s  ClockTime = 1 s

Time = 0.196384

DEBUG cell=0 t=0.196244→0.196384 step=0.000140174 V=1.09352 u1=2.29725 u2=0.833346 u3=0 Iion=-1.31506
DEBUG cell=0 t=0.196244→0.196384 step=0.00126157 V=1.09352 u1=2.29746 u2=0.833248 u3=0 Iion=-1.31503
PIMPLE: iteration 1
DICPCG:  Solving for Vm, Initial residual = 2.92923e-05, Final residual = 4.87857e-25, No Iterations 3
PIMPLE: iteration 2
DICPCG:  Solving for Vm, Initial residual = 6.89357e-17, Final residual = 6.89357e-17, No Iterations 0
ExecutionTime = 0.22 s  ClockTime = 1 s

Time = 0.196524

DEBUG cell=0 t=0.196384→0.196524 step=0.000140174 V=1.09358 u1=2.29746 u2=0.833248 u3=0 Iion=-1.31503
DEBUG cell=0 t=0.196384→0.196524 step=0.00126157 V=1.09358 u1=2.29766 u2=0.83315 u3=0 Iion=-1.315
PIMPLE: iteration 1
DICPCG:  Solving for Vm, Initial residual = 2.92888e-05, Final residual = 5.65774e-25, No Iterations 3
PIMPLE: iteration 2
DICPCG:  Solving for Vm, Initial residual = 6.63557e-17, Final residual = 6.63557e-17, No Iterations 0
ExecutionTime = 0.22 s  ClockTime = 1 s

Time = 0.196664

DEBUG cell=0 t=0.196524→0.196664 step=0.000140174 V=1.09365 u1=2.29766 u2=0.83315 u3=0 Iion=-1.315
DEBUG cell=0 t=0.196524→0.196664 step=0.00126157 V=1.09365 u1=2.29787 u2=0.833053 u3=0 Iion=-1.31497
PIMPLE: iteration 1
DICPCG:  Solving for Vm, Initial residual = 2.92854e-05, Final residual = 3.43829e-25, No Iterations 3
PIMPLE: iteration 2
DICPCG:  Solving for Vm, Initial residual = 5.01828e-17, Final residual = 5.01828e-17, No Iterations 0
ExecutionTime = 0.22 s  ClockTime = 1 s

Time = 0.196804

DEBUG cell=0 t=0.196664→0.196804 step=0.000140174 V=1.09371 u1=2.29787 u2=0.833053 u3=0 Iion=-1.31497
DEBUG cell=0 t=0.196664→0.196804 step=0.00126157 V=1.09371 u1=2.29807 u2=0.832955 u3=0 Iion=-1.31494
PIMPLE: iteration 1
DICPCG:  Solving for Vm, Initial residual = 2.9282e-05, Final residual = 6.05783e-25, No Iterations 3
PIMPLE: iteration 2
DICPCG:  Solving for Vm, Initial residual = 4.91558e-17, Final residual = 4.91558e-17, No Iterations 0
ExecutionTime = 0.22 s  ClockTime = 1 s

Time = 0.196944

DEBUG cell=0 t=0.196804→0.196944 step=0.000140174 V=1.09378 u1=2.29807 u2=0.832955 u3=0 Iion=-1.31494
DEBUG cell=0 t=0.196804→0.196944 step=0.00126157 V=1.09378 u1=2.29828 u2=0.832858 u3=0 Iion=-1.31491
PIMPLE: iteration 1
DICPCG:  Solving for Vm, Initial residual = 2.92786e-05, Final residual = 4.59445e-25, No Iterations 3
PIMPLE: iteration 2
DICPCG:  Solving for Vm, Initial residual = 5.27835e-17, Final residual = 5.27835e-17, No Iterations 0
ExecutionTime = 0.22 s  ClockTime = 1 s

Time = 0.197085

DEBUG cell=0 t=0.196944→0.197085 step=0.000140174 V=1.09384 u1=2.29828 u2=0.832858 u3=0 Iion=-1.31491
DEBUG cell=0 t=0.196944→0.197085 step=0.00126157 V=1.09384 u1=2.29848 u2=0.83276 u3=0 Iion=-1.31488
PIMPLE: iteration 1
DICPCG:  Solving for Vm, Initial residual = 2.92751e-05, Final residual = 5.59775e-25, No Iterations 3
PIMPLE: iteration 2
DICPCG:  Solving for Vm, Initial residual = 5.42698e-17, Final residual = 5.42698e-17, No Iterations 0
ExecutionTime = 0.23 s  ClockTime = 1 s

Time = 0.197225

DEBUG cell=0 t=0.197085→0.197225 step=0.000140174 V=1.0939 u1=2.29848 u2=0.83276 u3=0 Iion=-1.31488
DEBUG cell=0 t=0.197085→0.197225 step=0.00126157 V=1.0939 u1=2.29869 u2=0.832663 u3=0 Iion=-1.31485
PIMPLE: iteration 1
DICPCG:  Solving for Vm, Initial residual = 2.92717e-05, Final residual = 4.80429e-25, No Iterations 3
PIMPLE: iteration 2
DICPCG:  Solving for Vm, Initial residual = 4.92092e-17, Final residual = 4.92092e-17, No Iterations 0
ExecutionTime = 0.23 s  ClockTime = 1 s

Time = 0.197365

DEBUG cell=0 t=0.197225→0.197365 step=0.000140174 V=1.09397 u1=2.29869 u2=0.832663 u3=0 Iion=-1.31485
DEBUG cell=0 t=0.197225→0.197365 step=0.00126157 V=1.09397 u1=2.29889 u2=0.832565 u3=0 Iion=-1.31482
PIMPLE: iteration 1
DICPCG:  Solving for Vm, Initial residual = 2.92683e-05, Final residual = 4.84604e-25, No Iterations 3
PIMPLE: iteration 2
DICPCG:  Solving for Vm, Initial residual = 4.3932e-17, Final residual = 4.3932e-17, No Iterations 0
ExecutionTime = 0.23 s  ClockTime = 1 s

Time = 0.197505

DEBUG cell=0 t=0.197365→0.197505 step=0.000140174 V=1.09403 u1=2.29889 u2=0.832565 u3=0 Iion=-1.31482
DEBUG cell=0 t=0.197365→0.197505 step=0.00126157 V=1.09403 u1=2.2991 u2=0.832468 u3=0 Iion=-1.31479
PIMPLE: iteration 1
DICPCG:  Solving for Vm, Initial residual = 2.92648e-05, Final residual = 3.62762e-25, No Iterations 3
PIMPLE: iteration 2
DICPCG:  Solving for Vm, Initial residual = 5.40121e-17, Final residual = 5.40121e-17, No Iterations 0
ExecutionTime = 0.23 s  ClockTime = 1 s

Time = 0.197645

DEBUG cell=0 t=0.197505→0.197645 step=0.000140174 V=1.0941 u1=2.2991 u2=0.832468 u3=0 Iion=-1.31479
DEBUG cell=0 t=0.197505→0.197645 step=0.00126157 V=1.0941 u1=2.2993 u2=0.83237 u3=0 Iion=-1.31476
PIMPLE: iteration 1
DICPCG:  Solving for Vm, Initial residual = 2.92614e-05, Final residual = 5.03357e-25, No Iterations 3
PIMPLE: iteration 2
DICPCG:  Solving for Vm, Initial residual = 4.66878e-17, Final residual = 4.66878e-17, No Iterations 0
ExecutionTime = 0.23 s  ClockTime = 1 s

Time = 0.197786

DEBUG cell=0 t=0.197645→0.197786 step=0.000140174 V=1.09416 u1=2.2993 u2=0.83237 u3=0 Iion=-1.31476
DEBUG cell=0 t=0.197645→0.197786 step=0.00126157 V=1.09416 u1=2.29951 u2=0.832273 u3=0 Iion=-1.31473
PIMPLE: iteration 1
DICPCG:  Solving for Vm, Initial residual = 2.9258e-05, Final residual = 4.66078e-25, No Iterations 3
PIMPLE: iteration 2
DICPCG:  Solving for Vm, Initial residual = 4.91977e-17, Final residual = 4.91977e-17, No Iterations 0
ExecutionTime = 0.23 s  ClockTime = 1 s

Time = 0.197926

DEBUG cell=0 t=0.197786→0.197926 step=0.000140174 V=1.09422 u1=2.29951 u2=0.832273 u3=0 Iion=-1.31473
DEBUG cell=0 t=0.197786→0.197926 step=0.00126157 V=1.09422 u1=2.29971 u2=0.832175 u3=0 Iion=-1.3147
PIMPLE: iteration 1
DICPCG:  Solving for Vm, Initial residual = 2.92546e-05, Final residual = 7.65091e-25, No Iterations 3
PIMPLE: iteration 2
DICPCG:  Solving for Vm, Initial residual = 4.46661e-17, Final residual = 4.46661e-17, No Iterations 0
ExecutionTime = 0.23 s  ClockTime = 1 s

Time = 0.198066

DEBUG cell=0 t=0.197926→0.198066 step=0.000140174 V=1.09429 u1=2.29971 u2=0.832175 u3=0 Iion=-1.3147
DEBUG cell=0 t=0.197926→0.198066 step=0.00126157 V=1.09429 u1=2.29992 u2=0.832078 u3=0 Iion=-1.31467
PIMPLE: iteration 1
DICPCG:  Solving for Vm, Initial residual = 2.92512e-05, Final residual = 3.9275e-25, No Iterations 3
PIMPLE: iteration 2
DICPCG:  Solving for Vm, Initial residual = 5.39684e-17, Final residual = 5.39684e-17, No Iterations 0
ExecutionTime = 0.23 s  ClockTime = 1 s

Time = 0.198206

DEBUG cell=0 t=0.198066→0.198206 step=0.000140174 V=1.09435 u1=2.29992 u2=0.832078 u3=0 Iion=-1.31467
DEBUG cell=0 t=0.198066→0.198206 step=0.00126157 V=1.09435 u1=2.30012 u2=0.831981 u3=0 Iion=-1.31464
PIMPLE: iteration 1
DICPCG:  Solving for Vm, Initial residual = 2.92477e-05, Final residual = 4.57947e-25, No Iterations 3
PIMPLE: iteration 2
DICPCG:  Solving for Vm, Initial residual = 5.74079e-17, Final residual = 5.74079e-17, No Iterations 0
ExecutionTime = 0.23 s  ClockTime = 1 s

Time = 0.198346

DEBUG cell=0 t=0.198206→0.198346 step=0.000140174 V=1.09442 u1=2.30012 u2=0.831981 u3=0 Iion=-1.31464
DEBUG cell=0 t=0.198206→0.198346 step=0.00126157 V=1.09442 u1=2.30033 u2=0.831883 u3=0 Iion=-1.31461
PIMPLE: iteration 1
DICPCG:  Solving for Vm, Initial residual = 2.92443e-05, Final residual = 3.62198e-25, No Iterations 3
PIMPLE: iteration 2
DICPCG:  Solving for Vm, Initial residual = 4.3883e-17, Final residual = 4.3883e-17, No Iterations 0
ExecutionTime = 0.23 s  ClockTime = 1 s

Time = 0.198486

DEBUG cell=0 t=0.198346→0.198486 step=0.000140174 V=1.09448 u1=2.30033 u2=0.831883 u3=0 Iion=-1.31461
DEBUG cell=0 t=0.198346→0.198486 step=0.00126157 V=1.09448 u1=2.30053 u2=0.831786 u3=0 Iion=-1.31458
PIMPLE: iteration 1
DICPCG:  Solving for Vm, Initial residual = 2.92409e-05, Final residual = 5.29925e-25, No Iterations 3
PIMPLE: iteration 2
DICPCG:  Solving for Vm, Initial residual = 4.42836e-17, Final residual = 4.42836e-17, No Iterations 0
ExecutionTime = 0.23 s  ClockTime = 1 s

Time = 0.198627

DEBUG cell=0 t=0.198486→0.198627 step=0.000140174 V=1.09454 u1=2.30053 u2=0.831786 u3=0 Iion=-1.31458
DEBUG cell=0 t=0.198486→0.198627 step=0.00126157 V=1.09454 u1=2.30074 u2=0.831689 u3=0 Iion=-1.31455
PIMPLE: iteration 1
DICPCG:  Solving for Vm, Initial residual = 2.92375e-05, Final residual = 4.18232e-25, No Iterations 3
PIMPLE: iteration 2
DICPCG:  Solving for Vm, Initial residual = 5.17852e-17, Final residual = 5.17852e-17, No Iterations 0
ExecutionTime = 0.23 s  ClockTime = 1 s

Time = 0.198767

DEBUG cell=0 t=0.198627→0.198767 step=0.000140174 V=1.09461 u1=2.30074 u2=0.831689 u3=0 Iion=-1.31455
DEBUG cell=0 t=0.198627→0.198767 step=0.00126157 V=1.09461 u1=2.30094 u2=0.831591 u3=0 Iion=-1.31452
PIMPLE: iteration 1
DICPCG:  Solving for Vm, Initial residual = 2.9234e-05, Final residual = 3.64824e-25, No Iterations 3
PIMPLE: iteration 2
DICPCG:  Solving for Vm, Initial residual = 6.30378e-17, Final residual = 6.30378e-17, No Iterations 0
ExecutionTime = 0.23 s  ClockTime = 1 s

Time = 0.198907

DEBUG cell=0 t=0.198767→0.198907 step=0.000140174 V=1.09467 u1=2.30094 u2=0.831591 u3=0 Iion=-1.31452
DEBUG cell=0 t=0.198767→0.198907 step=0.00126157 V=1.09467 u1=2.30115 u2=0.831494 u3=0 Iion=-1.31449
PIMPLE: iteration 1
DICPCG:  Solving for Vm, Initial residual = 2.92306e-05, Final residual = 5.49925e-25, No Iterations 3
PIMPLE: iteration 2
DICPCG:  Solving for Vm, Initial residual = 5.50657e-17, Final residual = 5.50657e-17, No Iterations 0
ExecutionTime = 0.23 s  ClockTime = 1 s

Time = 0.199047

DEBUG cell=0 t=0.198907→0.199047 step=0.000140174 V=1.09474 u1=2.30115 u2=0.831494 u3=0 Iion=-1.31449
DEBUG cell=0 t=0.198907→0.199047 step=0.00126157 V=1.09474 u1=2.30135 u2=0.831397 u3=0 Iion=-1.31446
PIMPLE: iteration 1
DICPCG:  Solving for Vm, Initial residual = 2.92272e-05, Final residual = 5.61415e-25, No Iterations 3
PIMPLE: iteration 2
DICPCG:  Solving for Vm, Initial residual = 6.29374e-17, Final residual = 6.29374e-17, No Iterations 0
ExecutionTime = 0.23 s  ClockTime = 1 s

Time = 0.199187

DEBUG cell=0 t=0.199047→0.199187 step=0.000140174 V=1.0948 u1=2.30135 u2=0.831397 u3=0 Iion=-1.31446
DEBUG cell=0 t=0.199047→0.199187 step=0.00126157 V=1.0948 u1=2.30156 u2=0.8313 u3=0 Iion=-1.31443
PIMPLE: iteration 1
DICPCG:  Solving for Vm, Initial residual = 2.92238e-05, Final residual = 4.55823e-25, No Iterations 3
PIMPLE: iteration 2
DICPCG:  Solving for Vm, Initial residual = 5.28581e-17, Final residual = 5.28581e-17, No Iterations 0
ExecutionTime = 0.23 s  ClockTime = 1 s

Time = 0.199327

DEBUG cell=0 t=0.199187→0.199327 step=0.000140174 V=1.09486 u1=2.30156 u2=0.8313 u3=0 Iion=-1.31443
DEBUG cell=0 t=0.199187→0.199327 step=0.00126157 V=1.09486 u1=2.30176 u2=0.831203 u3=0 Iion=-1.3144
PIMPLE: iteration 1
DICPCG:  Solving for Vm, Initial residual = 2.92204e-05, Final residual = 4.57811e-25, No Iterations 3
PIMPLE: iteration 2
DICPCG:  Solving for Vm, Initial residual = 6.1039e-17, Final residual = 6.1039e-17, No Iterations 0
ExecutionTime = 0.23 s  ClockTime = 1 s

Time = 0.199468

DEBUG cell=0 t=0.199327→0.199468 step=0.000140174 V=1.09493 u1=2.30176 u2=0.831203 u3=0 Iion=-1.3144
DEBUG cell=0 t=0.199327→0.199468 step=0.00126157 V=1.09493 u1=2.30197 u2=0.831106 u3=0 Iion=-1.31437
PIMPLE: iteration 1
DICPCG:  Solving for Vm, Initial residual = 2.9217e-05, Final residual = 4.44119e-25, No Iterations 3
PIMPLE: iteration 2
DICPCG:  Solving for Vm, Initial residual = 4.80162e-17, Final residual = 4.80162e-17, No Iterations 0
ExecutionTime = 0.23 s  ClockTime = 1 s

Time = 0.199608

DEBUG cell=0 t=0.199468→0.199608 step=0.000140174 V=1.09499 u1=2.30197 u2=0.831106 u3=0 Iion=-1.31437
DEBUG cell=0 t=0.199468→0.199608 step=0.00126157 V=1.09499 u1=2.30217 u2=0.831008 u3=0 Iion=-1.31434
PIMPLE: iteration 1
DICPCG:  Solving for Vm, Initial residual = 2.92136e-05, Final residual = 3.78935e-25, No Iterations 3
PIMPLE: iteration 2
DICPCG:  Solving for Vm, Initial residual = 5.21359e-17, Final residual = 5.21359e-17, No Iterations 0
ExecutionTime = 0.23 s  ClockTime = 1 s

Time = 0.199748

DEBUG cell=0 t=0.199608→0.199748 step=0.000140174 V=1.09506 u1=2.30217 u2=0.831008 u3=0 Iion=-1.31434
DEBUG cell=0 t=0.199608→0.199748 step=0.00126157 V=1.09506 u1=2.30238 u2=0.830911 u3=0 Iion=-1.31431
PIMPLE: iteration 1
DICPCG:  Solving for Vm, Initial residual = 2.92101e-05, Final residual = 2.34128e-25, No Iterations 3
PIMPLE: iteration 2
DICPCG:  Solving for Vm, Initial residual = 4.85995e-17, Final residual = 4.85995e-17, No Iterations 0
ExecutionTime = 0.23 s  ClockTime = 1 s

Time = 0.199888

DEBUG cell=0 t=0.199748→0.199888 step=0.000140174 V=1.09512 u1=2.30238 u2=0.830911 u3=0 Iion=-1.31431
DEBUG cell=0 t=0.199748→0.199888 step=0.00126157 V=1.09512 u1=2.30258 u2=0.830814 u3=0 Iion=-1.31428
PIMPLE: iteration 1
DICPCG:  Solving for Vm, Initial residual = 2.92067e-05, Final residual = 4.51494e-25, No Iterations 3
PIMPLE: iteration 2
DICPCG:  Solving for Vm, Initial residual = 4.61483e-17, Final residual = 4.61483e-17, No Iterations 0
ExecutionTime = 0.23 s  ClockTime = 1 s

Time = 0.200028

DEBUG cell=0 t=0.199888→0.200028 step=0.000140174 V=1.09518 u1=2.30258 u2=0.830814 u3=0 Iion=-1.31428
DEBUG cell=0 t=0.199888→0.200028 step=0.00126157 V=1.09518 u1=2.30279 u2=0.830717 u3=0 Iion=-1.31425
PIMPLE: iteration 1
DICPCG:  Solving for Vm, Initial residual = 2.92033e-05, Final residual = 4.2887e-25, No Iterations 3
PIMPLE: iteration 2
DICPCG:  Solving for Vm, Initial residual = 4.8036e-17, Final residual = 4.8036e-17, No Iterations 0
Running postProcess via tmanufacturedFDA.

Simulation summary:
-------------------
Number of cells (N)   = 80
Solver type           = Implicit
Grid spacing (dx)     = 0.0125
Time step (dt)        = 0.000140174
Number of steps       = 1427
Final simulation time = 0.200028
-------------------

Manufactured-solution error summary (t = 0.200028):
-------------------------------------------------
Field     L1-error       L2-error       Linf-error
Vm     2.43239e-06   3.38578e-06   6.93339e-06
u1     6.7727e-06   7.64249e-06   1.28874e-05
u2     1.78102e-06   2.12179e-06   4.48481e-06
-------------------------------------------------

ExecutionTime = 0.23 s  ClockTime = 1 s


End

Finalising parallel run
